<?xml version="1.0" encoding="UTF-8"?>

<carriers xmlns="http://www.matsim.org/files/dtd" xmlns:xsi="http://www.w3.org/2001/XMLSchema-instance" xsi:schemaLocation="http://www.matsim.org/files/dtd http://www.matsim.org/files/dtd/carriersDefinitions_v2.1.xsd">
	<carrier id="Carrier1">
		<attributes>
			<attribute name="jspritIterations" class="java.lang.Integer">100</attribute>
		</attributes>
		<capabilities fleetSize="INFINITE">
			<vehicles>
				<vehicle id="van_0" depotLinkId="333784188_1" typeId="van" earliestStart="00:00:00" latestEnd="596523:14:07"/>
				<vehicle id="van_1" depotLinkId="333784189_r_3" typeId="van" earliestStart="00:00:00" latestEnd="596523:14:07"/>
				<vehicle id="van_2" depotLinkId="27566523_r_10" typeId="van" earliestStart="00:00:00" latestEnd="596523:14:07"/>
				<vehicle id="van_3" depotLinkId="333784188_r_3" typeId="van" earliestStart="00:00:00" latestEnd="596523:14:07"/>
				<vehicle id="van_4" depotLinkId="27566523_11" typeId="van" earliestStart="00:00:00" latestEnd="596523:14:07"/>
				<vehicle id="van_5" depotLinkId="333784189_2" typeId="van" earliestStart="00:00:00" latestEnd="596523:14:07"/>
			</vehicles>
		</capabilities>
		<shipments>
			<shipment id="shipment_77" from="333784188_r_3" to="263595861_r_1" size="21" startPickup="00:00:00" endPickup="596523:14:07" startDelivery="00:00:00" endDelivery="596523:14:07" pickupServiceTime="00:00:00" deliveryServiceTime="00:00:00"/>
			<shipment id="shipment_78" from="333784189_2" to="3343975_12" size="21" startPickup="00:00:00" endPickup="596523:14:07" startDelivery="00:00:00" endDelivery="596523:14:07" pickupServiceTime="00:00:00" deliveryServiceTime="00:00:00"/>
			<shipment id="shipment_79" from="333784189_2" to="1136153446_1" size="17" startPickup="00:00:00" endPickup="596523:14:07" startDelivery="00:00:00" endDelivery="596523:14:07" pickupServiceTime="00:00:00" deliveryServiceTime="00:00:00"/>
			<shipment id="shipment_73" from="333784188_r_3" to="3343969_3" size="5" startPickup="00:00:00" endPickup="596523:14:07" startDelivery="00:00:00" endDelivery="596523:14:07" pickupServiceTime="00:00:00" deliveryServiceTime="00:00:00"/>
			<shipment id="shipment_74" from="27566523_r_10" to="94805330_0-94805330_1" size="5" startPickup="00:00:00" endPickup="596523:14:07" startDelivery="00:00:00" endDelivery="596523:14:07" pickupServiceTime="00:00:00" deliveryServiceTime="00:00:00"/>
			<shipment id="shipment_75" from="333784188_1" to="461159369_r_8" size="10" startPickup="00:00:00" endPickup="596523:14:07" startDelivery="00:00:00" endDelivery="596523:14:07" pickupServiceTime="00:00:00" deliveryServiceTime="00:00:00"/>
			<shipment id="shipment_76" from="27566523_r_10" to="3424504_4" size="5" startPickup="00:00:00" endPickup="596523:14:07" startDelivery="00:00:00" endDelivery="596523:14:07" pickupServiceTime="00:00:00" deliveryServiceTime="00:00:00"/>
			<shipment id="shipment_80" from="27566523_11" to="8412180_5" size="5" startPickup="00:00:00" endPickup="596523:14:07" startDelivery="00:00:00" endDelivery="596523:14:07" pickupServiceTime="00:00:00" deliveryServiceTime="00:00:00"/>
			<shipment id="shipment_81" from="333784189_2" to="125835582_r_6" size="25" startPickup="00:00:00" endPickup="596523:14:07" startDelivery="00:00:00" endDelivery="596523:14:07" pickupServiceTime="00:00:00" deliveryServiceTime="00:00:00"/>
			<shipment id="shipment_82" from="333784189_r_3" to="89557186_r_5" size="17" startPickup="00:00:00" endPickup="596523:14:07" startDelivery="00:00:00" endDelivery="596523:14:07" pickupServiceTime="00:00:00" deliveryServiceTime="00:00:00"/>
			<shipment id="shipment_83" from="333784189_r_3" to="3991663_8" size="7" startPickup="00:00:00" endPickup="596523:14:07" startDelivery="00:00:00" endDelivery="596523:14:07" pickupServiceTime="00:00:00" deliveryServiceTime="00:00:00"/>
			<shipment id="shipment_88" from="333784188_r_3" to="15960800_0" size="6" startPickup="00:00:00" endPickup="596523:14:07" startDelivery="00:00:00" endDelivery="596523:14:07" pickupServiceTime="00:00:00" deliveryServiceTime="00:00:00"/>
			<shipment id="shipment_89" from="333784189_2" to="297017195_0-297017195_1" size="15" startPickup="00:00:00" endPickup="596523:14:07" startDelivery="00:00:00" endDelivery="596523:14:07" pickupServiceTime="00:00:00" deliveryServiceTime="00:00:00"/>
			<shipment id="shipment_84" from="333784189_2" to="1260634805_r_5" size="9" startPickup="00:00:00" endPickup="596523:14:07" startDelivery="00:00:00" endDelivery="596523:14:07" pickupServiceTime="00:00:00" deliveryServiceTime="00:00:00"/>
			<shipment id="shipment_85" from="333784188_1" to="843033252_4" size="17" startPickup="00:00:00" endPickup="596523:14:07" startDelivery="00:00:00" endDelivery="596523:14:07" pickupServiceTime="00:00:00" deliveryServiceTime="00:00:00"/>
			<shipment id="shipment_86" from="27566523_11" to="94805320_3" size="14" startPickup="00:00:00" endPickup="596523:14:07" startDelivery="00:00:00" endDelivery="596523:14:07" pickupServiceTime="00:00:00" deliveryServiceTime="00:00:00"/>
			<shipment id="shipment_87" from="27566523_11" to="94813961_7" size="8" startPickup="00:00:00" endPickup="596523:14:07" startDelivery="00:00:00" endDelivery="596523:14:07" pickupServiceTime="00:00:00" deliveryServiceTime="00:00:00"/>
			<shipment id="shipment_91" from="333784189_2" to="25983368_r_2" size="10" startPickup="00:00:00" endPickup="596523:14:07" startDelivery="00:00:00" endDelivery="596523:14:07" pickupServiceTime="00:00:00" deliveryServiceTime="00:00:00"/>
			<shipment id="shipment_92" from="333784188_1" to="24471496_3" size="10" startPickup="00:00:00" endPickup="596523:14:07" startDelivery="00:00:00" endDelivery="596523:14:07" pickupServiceTime="00:00:00" deliveryServiceTime="00:00:00"/>
			<shipment id="shipment_93" from="333784189_2" to="578662092_0" size="8" startPickup="00:00:00" endPickup="596523:14:07" startDelivery="00:00:00" endDelivery="596523:14:07" pickupServiceTime="00:00:00" deliveryServiceTime="00:00:00"/>
			<shipment id="shipment_94" from="27566523_11" to="453808502_0" size="17" startPickup="00:00:00" endPickup="596523:14:07" startDelivery="00:00:00" endDelivery="596523:14:07" pickupServiceTime="00:00:00" deliveryServiceTime="00:00:00"/>
			<shipment id="shipment_90" from="333784189_2" to="94870915_0" size="22" startPickup="00:00:00" endPickup="596523:14:07" startDelivery="00:00:00" endDelivery="596523:14:07" pickupServiceTime="00:00:00" deliveryServiceTime="00:00:00"/>
			<shipment id="shipment_59" from="333784189_r_3" to="608715598_r_3-608715598_r_4" size="21" startPickup="00:00:00" endPickup="596523:14:07" startDelivery="00:00:00" endDelivery="596523:14:07" pickupServiceTime="00:00:00" deliveryServiceTime="00:00:00"/>
			<shipment id="shipment_1" from="27566523_r_10" to="842361630_1" size="5" startPickup="00:00:00" endPickup="596523:14:07" startDelivery="00:00:00" endDelivery="596523:14:07" pickupServiceTime="00:00:00" deliveryServiceTime="00:00:00"/>
			<shipment id="shipment_55" from="333784189_r_3" to="1052635304_0-1052635304_1" size="20" startPickup="00:00:00" endPickup="596523:14:07" startDelivery="00:00:00" endDelivery="596523:14:07" pickupServiceTime="00:00:00" deliveryServiceTime="00:00:00"/>
			<shipment id="shipment_0" from="27566523_r_10" to="857806591_0" size="5" startPickup="00:00:00" endPickup="596523:14:07" startDelivery="00:00:00" endDelivery="596523:14:07" pickupServiceTime="00:00:00" deliveryServiceTime="00:00:00"/>
			<shipment id="shipment_56" from="333784189_2" to="147856938_r_3" size="18" startPickup="00:00:00" endPickup="596523:14:07" startDelivery="00:00:00" endDelivery="596523:14:07" pickupServiceTime="00:00:00" deliveryServiceTime="00:00:00"/>
			<shipment id="shipment_57" from="333784189_r_3" to="723240769_1" size="18" startPickup="00:00:00" endPickup="596523:14:07" startDelivery="00:00:00" endDelivery="596523:14:07" pickupServiceTime="00:00:00" deliveryServiceTime="00:00:00"/>
			<shipment id="shipment_58" from="333784188_r_3" to="131632250_2" size="13" startPickup="00:00:00" endPickup="596523:14:07" startDelivery="00:00:00" endDelivery="596523:14:07" pickupServiceTime="00:00:00" deliveryServiceTime="00:00:00"/>
			<shipment id="shipment_109" from="333784189_r_3" to="698685583_r_0" size="14" startPickup="00:00:00" endPickup="596523:14:07" startDelivery="00:00:00" endDelivery="596523:14:07" pickupServiceTime="00:00:00" deliveryServiceTime="00:00:00"/>
			<shipment id="shipment_5" from="333784189_r_3" to="99500149_r_3" size="19" startPickup="00:00:00" endPickup="596523:14:07" startDelivery="00:00:00" endDelivery="596523:14:07" pickupServiceTime="00:00:00" deliveryServiceTime="00:00:00"/>
			<shipment id="shipment_51" from="333784189_2" to="290207863_0" size="11" startPickup="00:00:00" endPickup="596523:14:07" startDelivery="00:00:00" endDelivery="596523:14:07" pickupServiceTime="00:00:00" deliveryServiceTime="00:00:00"/>
			<shipment id="shipment_108" from="333784188_r_3" to="160134553_r_8" size="12" startPickup="00:00:00" endPickup="596523:14:07" startDelivery="00:00:00" endDelivery="596523:14:07" pickupServiceTime="00:00:00" deliveryServiceTime="00:00:00"/>
			<shipment id="shipment_4" from="27566523_11" to="3424504_r_9" size="19" startPickup="00:00:00" endPickup="596523:14:07" startDelivery="00:00:00" endDelivery="596523:14:07" pickupServiceTime="00:00:00" deliveryServiceTime="00:00:00"/>
			<shipment id="shipment_52" from="333784188_1" to="8412197_14" size="12" startPickup="00:00:00" endPickup="596523:14:07" startDelivery="00:00:00" endDelivery="596523:14:07" pickupServiceTime="00:00:00" deliveryServiceTime="00:00:00"/>
			<shipment id="shipment_107" from="333784188_1" to="198882511_1" size="25" startPickup="00:00:00" endPickup="596523:14:07" startDelivery="00:00:00" endDelivery="596523:14:07" pickupServiceTime="00:00:00" deliveryServiceTime="00:00:00"/>
			<shipment id="shipment_3" from="333784188_1" to="13066183_r_8" size="10" startPickup="00:00:00" endPickup="596523:14:07" startDelivery="00:00:00" endDelivery="596523:14:07" pickupServiceTime="00:00:00" deliveryServiceTime="00:00:00"/>
			<shipment id="shipment_53" from="333784189_2" to="723240771_3" size="21" startPickup="00:00:00" endPickup="596523:14:07" startDelivery="00:00:00" endDelivery="596523:14:07" pickupServiceTime="00:00:00" deliveryServiceTime="00:00:00"/>
			<shipment id="shipment_106" from="27566523_11" to="3343956_1" size="20" startPickup="00:00:00" endPickup="596523:14:07" startDelivery="00:00:00" endDelivery="596523:14:07" pickupServiceTime="00:00:00" deliveryServiceTime="00:00:00"/>
			<shipment id="shipment_2" from="27566523_r_10" to="4746848_2" size="13" startPickup="00:00:00" endPickup="596523:14:07" startDelivery="00:00:00" endDelivery="596523:14:07" pickupServiceTime="00:00:00" deliveryServiceTime="00:00:00"/>
			<shipment id="shipment_54" from="27566523_11" to="8101837_0" size="7" startPickup="00:00:00" endPickup="596523:14:07" startDelivery="00:00:00" endDelivery="596523:14:07" pickupServiceTime="00:00:00" deliveryServiceTime="00:00:00"/>
			<shipment id="shipment_105" from="333784188_1" to="123929615_0" size="5" startPickup="00:00:00" endPickup="596523:14:07" startDelivery="00:00:00" endDelivery="596523:14:07" pickupServiceTime="00:00:00" deliveryServiceTime="00:00:00"/>
			<shipment id="shipment_9" from="27566523_r_10" to="1154212880_1" size="7" startPickup="00:00:00" endPickup="596523:14:07" startDelivery="00:00:00" endDelivery="596523:14:07" pickupServiceTime="00:00:00" deliveryServiceTime="00:00:00"/>
			<shipment id="shipment_104" from="333784189_r_3" to="554509128_5" size="14" startPickup="00:00:00" endPickup="596523:14:07" startDelivery="00:00:00" endDelivery="596523:14:07" pickupServiceTime="00:00:00" deliveryServiceTime="00:00:00"/>
			<shipment id="shipment_8" from="27566523_11" to="8127969_4" size="14" startPickup="00:00:00" endPickup="596523:14:07" startDelivery="00:00:00" endDelivery="596523:14:07" pickupServiceTime="00:00:00" deliveryServiceTime="00:00:00"/>
			<shipment id="shipment_103" from="27566523_11" to="1028763291_r_1" size="25" startPickup="00:00:00" endPickup="596523:14:07" startDelivery="00:00:00" endDelivery="596523:14:07" pickupServiceTime="00:00:00" deliveryServiceTime="00:00:00"/>
			<shipment id="shipment_7" from="333784189_2" to="1260634805_r_0-1260634805_r_1" size="15" startPickup="00:00:00" endPickup="596523:14:07" startDelivery="00:00:00" endDelivery="596523:14:07" pickupServiceTime="00:00:00" deliveryServiceTime="00:00:00"/>
			<shipment id="shipment_60" from="333784189_r_3" to="16771606_1" size="15" startPickup="00:00:00" endPickup="596523:14:07" startDelivery="00:00:00" endDelivery="596523:14:07" pickupServiceTime="00:00:00" deliveryServiceTime="00:00:00"/>
			<shipment id="shipment_102" from="333784189_r_3" to="15050767_2" size="24" startPickup="00:00:00" endPickup="596523:14:07" startDelivery="00:00:00" endDelivery="596523:14:07" pickupServiceTime="00:00:00" deliveryServiceTime="00:00:00"/>
			<shipment id="shipment_6" from="333784189_2" to="3450250_r_0-125472517_r_0-125472517_r_1" size="8" startPickup="00:00:00" endPickup="596523:14:07" startDelivery="00:00:00" endDelivery="596523:14:07" pickupServiceTime="00:00:00" deliveryServiceTime="00:00:00"/>
			<shipment id="shipment_61" from="333784189_2" to="260587360_5" size="22" startPickup="00:00:00" endPickup="596523:14:07" startDelivery="00:00:00" endDelivery="596523:14:07" pickupServiceTime="00:00:00" deliveryServiceTime="00:00:00"/>
			<shipment id="shipment_101" from="27566523_11" to="3752554_1" size="20" startPickup="00:00:00" endPickup="596523:14:07" startDelivery="00:00:00" endDelivery="596523:14:07" pickupServiceTime="00:00:00" deliveryServiceTime="00:00:00"/>
			<shipment id="shipment_100" from="333784188_1" to="293517562_r_0" size="6" startPickup="00:00:00" endPickup="596523:14:07" startDelivery="00:00:00" endDelivery="596523:14:07" pickupServiceTime="00:00:00" deliveryServiceTime="00:00:00"/>
			<shipment id="shipment_66" from="27566523_11" to="23041586_6" size="24" startPickup="00:00:00" endPickup="596523:14:07" startDelivery="00:00:00" endDelivery="596523:14:07" pickupServiceTime="00:00:00" deliveryServiceTime="00:00:00"/>
			<shipment id="shipment_67" from="27566523_11" to="150056709_r_9" size="10" startPickup="00:00:00" endPickup="596523:14:07" startDelivery="00:00:00" endDelivery="596523:14:07" pickupServiceTime="00:00:00" deliveryServiceTime="00:00:00"/>
			<shipment id="shipment_68" from="27566523_11" to="371242778_3" size="9" startPickup="00:00:00" endPickup="596523:14:07" startDelivery="00:00:00" endDelivery="596523:14:07" pickupServiceTime="00:00:00" deliveryServiceTime="00:00:00"/>
			<shipment id="shipment_69" from="333784188_r_3" to="189453018_r_1" size="20" startPickup="00:00:00" endPickup="596523:14:07" startDelivery="00:00:00" endDelivery="596523:14:07" pickupServiceTime="00:00:00" deliveryServiceTime="00:00:00"/>
			<shipment id="shipment_62" from="333784189_2" to="892269079_r_1-892269079_r_2-892269079_r_3-892269079_r_4" size="22" startPickup="00:00:00" endPickup="596523:14:07" startDelivery="00:00:00" endDelivery="596523:14:07" pickupServiceTime="00:00:00" deliveryServiceTime="00:00:00"/>
			<shipment id="shipment_63" from="333784188_r_3" to="290207861_6" size="12" startPickup="00:00:00" endPickup="596523:14:07" startDelivery="00:00:00" endDelivery="596523:14:07" pickupServiceTime="00:00:00" deliveryServiceTime="00:00:00"/>
			<shipment id="shipment_64" from="27566523_r_10" to="461159348_0" size="18" startPickup="00:00:00" endPickup="596523:14:07" startDelivery="00:00:00" endDelivery="596523:14:07" pickupServiceTime="00:00:00" deliveryServiceTime="00:00:00"/>
			<shipment id="shipment_65" from="333784189_r_3" to="313751282_r_0" size="23" startPickup="00:00:00" endPickup="596523:14:07" startDelivery="00:00:00" endDelivery="596523:14:07" pickupServiceTime="00:00:00" deliveryServiceTime="00:00:00"/>
			<shipment id="shipment_70" from="27566523_11" to="147856942_3" size="20" startPickup="00:00:00" endPickup="596523:14:07" startDelivery="00:00:00" endDelivery="596523:14:07" pickupServiceTime="00:00:00" deliveryServiceTime="00:00:00"/>
			<shipment id="shipment_71" from="27566523_11" to="3752553_r_9" size="17" startPickup="00:00:00" endPickup="596523:14:07" startDelivery="00:00:00" endDelivery="596523:14:07" pickupServiceTime="00:00:00" deliveryServiceTime="00:00:00"/>
			<shipment id="shipment_72" from="27566523_r_10" to="1262230502_r_0" size="25" startPickup="00:00:00" endPickup="596523:14:07" startDelivery="00:00:00" endDelivery="596523:14:07" pickupServiceTime="00:00:00" deliveryServiceTime="00:00:00"/>
			<shipment id="shipment_37" from="333784188_1" to="25983371_2" size="21" startPickup="00:00:00" endPickup="596523:14:07" startDelivery="00:00:00" endDelivery="596523:14:07" pickupServiceTime="00:00:00" deliveryServiceTime="00:00:00"/>
			<shipment id="shipment_38" from="333784189_r_3" to="61557498_5" size="22" startPickup="00:00:00" endPickup="596523:14:07" startDelivery="00:00:00" endDelivery="596523:14:07" pickupServiceTime="00:00:00" deliveryServiceTime="00:00:00"/>
			<shipment id="shipment_39" from="27566523_r_10" to="104410164_1-104410164_2" size="19" startPickup="00:00:00" endPickup="596523:14:07" startDelivery="00:00:00" endDelivery="596523:14:07" pickupServiceTime="00:00:00" deliveryServiceTime="00:00:00"/>
			<shipment id="shipment_33" from="27566523_r_10" to="3343956_2" size="7" startPickup="00:00:00" endPickup="596523:14:07" startDelivery="00:00:00" endDelivery="596523:14:07" pickupServiceTime="00:00:00" deliveryServiceTime="00:00:00"/>
			<shipment id="shipment_34" from="333784189_r_3" to="25922446_r_2" size="13" startPickup="00:00:00" endPickup="596523:14:07" startDelivery="00:00:00" endDelivery="596523:14:07" pickupServiceTime="00:00:00" deliveryServiceTime="00:00:00"/>
			<shipment id="shipment_35" from="27566523_11" to="254882039_r_0" size="22" startPickup="00:00:00" endPickup="596523:14:07" startDelivery="00:00:00" endDelivery="596523:14:07" pickupServiceTime="00:00:00" deliveryServiceTime="00:00:00"/>
			<shipment id="shipment_36" from="27566523_11" to="126348347_1" size="7" startPickup="00:00:00" endPickup="596523:14:07" startDelivery="00:00:00" endDelivery="596523:14:07" pickupServiceTime="00:00:00" deliveryServiceTime="00:00:00"/>
			<shipment id="shipment_30" from="333784189_2" to="294038585_3" size="15" startPickup="00:00:00" endPickup="596523:14:07" startDelivery="00:00:00" endDelivery="596523:14:07" pickupServiceTime="00:00:00" deliveryServiceTime="00:00:00"/>
			<shipment id="shipment_31" from="333784188_r_3" to="125835549_1" size="15" startPickup="00:00:00" endPickup="596523:14:07" startDelivery="00:00:00" endDelivery="596523:14:07" pickupServiceTime="00:00:00" deliveryServiceTime="00:00:00"/>
			<shipment id="shipment_32" from="333784188_r_3" to="126304944_8" size="10" startPickup="00:00:00" endPickup="596523:14:07" startDelivery="00:00:00" endDelivery="596523:14:07" pickupServiceTime="00:00:00" deliveryServiceTime="00:00:00"/>
			<shipment id="shipment_48" from="333784188_r_3" to="94808820_r_0-94808820_r_1" size="7" startPickup="00:00:00" endPickup="596523:14:07" startDelivery="00:00:00" endDelivery="596523:14:07" pickupServiceTime="00:00:00" deliveryServiceTime="00:00:00"/>
			<shipment id="shipment_49" from="333784188_r_3" to="215299349_1" size="12" startPickup="00:00:00" endPickup="596523:14:07" startDelivery="00:00:00" endDelivery="596523:14:07" pickupServiceTime="00:00:00" deliveryServiceTime="00:00:00"/>
			<shipment id="shipment_44" from="27566523_11" to="893949663_r_6" size="21" startPickup="00:00:00" endPickup="596523:14:07" startDelivery="00:00:00" endDelivery="596523:14:07" pickupServiceTime="00:00:00" deliveryServiceTime="00:00:00"/>
			<shipment id="shipment_45" from="333784188_r_3" to="260587359_3-260587359_4-260587359_5" size="18" startPickup="00:00:00" endPickup="596523:14:07" startDelivery="00:00:00" endDelivery="596523:14:07" pickupServiceTime="00:00:00" deliveryServiceTime="00:00:00"/>
			<shipment id="shipment_46" from="333784189_2" to="902611087_0" size="19" startPickup="00:00:00" endPickup="596523:14:07" startDelivery="00:00:00" endDelivery="596523:14:07" pickupServiceTime="00:00:00" deliveryServiceTime="00:00:00"/>
			<shipment id="shipment_47" from="333784188_1" to="461161288_3-461161288_4-461161288_5-461161288_6" size="22" startPickup="00:00:00" endPickup="596523:14:07" startDelivery="00:00:00" endDelivery="596523:14:07" pickupServiceTime="00:00:00" deliveryServiceTime="00:00:00"/>
			<shipment id="shipment_40" from="27566523_11" to="290156796_1" size="8" startPickup="00:00:00" endPickup="596523:14:07" startDelivery="00:00:00" endDelivery="596523:14:07" pickupServiceTime="00:00:00" deliveryServiceTime="00:00:00"/>
			<shipment id="shipment_41" from="27566523_r_10" to="616383052_1" size="10" startPickup="00:00:00" endPickup="596523:14:07" startDelivery="00:00:00" endDelivery="596523:14:07" pickupServiceTime="00:00:00" deliveryServiceTime="00:00:00"/>
			<shipment id="shipment_42" from="27566523_r_10" to="311628795_0-311628795_1" size="16" startPickup="00:00:00" endPickup="596523:14:07" startDelivery="00:00:00" endDelivery="596523:14:07" pickupServiceTime="00:00:00" deliveryServiceTime="00:00:00"/>
			<shipment id="shipment_43" from="27566523_r_10" to="931966075_5" size="11" startPickup="00:00:00" endPickup="596523:14:07" startDelivery="00:00:00" endDelivery="596523:14:07" pickupServiceTime="00:00:00" deliveryServiceTime="00:00:00"/>
			<shipment id="shipment_50" from="27566523_r_10" to="8127969_r_0" size="22" startPickup="00:00:00" endPickup="596523:14:07" startDelivery="00:00:00" endDelivery="596523:14:07" pickupServiceTime="00:00:00" deliveryServiceTime="00:00:00"/>
			<shipment id="shipment_199" from="27566523_11" to="123929457_2" size="15" startPickup="00:00:00" endPickup="596523:14:07" startDelivery="00:00:00" endDelivery="596523:14:07" pickupServiceTime="00:00:00" deliveryServiceTime="00:00:00"/>
			<shipment id="shipment_198" from="27566523_11" to="664248092_r_0" size="21" startPickup="00:00:00" endPickup="596523:14:07" startDelivery="00:00:00" endDelivery="596523:14:07" pickupServiceTime="00:00:00" deliveryServiceTime="00:00:00"/>
			<shipment id="shipment_197" from="333784188_1" to="99500147_0" size="21" startPickup="00:00:00" endPickup="596523:14:07" startDelivery="00:00:00" endDelivery="596523:14:07" pickupServiceTime="00:00:00" deliveryServiceTime="00:00:00"/>
			<shipment id="shipment_196" from="27566523_r_10" to="695974353_r_2" size="7" startPickup="00:00:00" endPickup="596523:14:07" startDelivery="00:00:00" endDelivery="596523:14:07" pickupServiceTime="00:00:00" deliveryServiceTime="00:00:00"/>
			<shipment id="shipment_195" from="333784189_r_3" to="814577203_0-814577202_0" size="7" startPickup="00:00:00" endPickup="596523:14:07" startDelivery="00:00:00" endDelivery="596523:14:07" pickupServiceTime="00:00:00" deliveryServiceTime="00:00:00"/>
			<shipment id="shipment_194" from="27566523_11" to="818431248_0" size="15" startPickup="00:00:00" endPickup="596523:14:07" startDelivery="00:00:00" endDelivery="596523:14:07" pickupServiceTime="00:00:00" deliveryServiceTime="00:00:00"/>
			<shipment id="shipment_193" from="333784189_r_3" to="15723847_14" size="24" startPickup="00:00:00" endPickup="596523:14:07" startDelivery="00:00:00" endDelivery="596523:14:07" pickupServiceTime="00:00:00" deliveryServiceTime="00:00:00"/>
			<shipment id="shipment_192" from="333784189_2" to="1085334277_0" size="13" startPickup="00:00:00" endPickup="596523:14:07" startDelivery="00:00:00" endDelivery="596523:14:07" pickupServiceTime="00:00:00" deliveryServiceTime="00:00:00"/>
			<shipment id="shipment_191" from="333784188_1" to="814577199_0" size="5" startPickup="00:00:00" endPickup="596523:14:07" startDelivery="00:00:00" endDelivery="596523:14:07" pickupServiceTime="00:00:00" deliveryServiceTime="00:00:00"/>
			<shipment id="shipment_190" from="333784189_r_3" to="578662093_0" size="12" startPickup="00:00:00" endPickup="596523:14:07" startDelivery="00:00:00" endDelivery="596523:14:07" pickupServiceTime="00:00:00" deliveryServiceTime="00:00:00"/>
			<shipment id="shipment_19" from="27566523_11" to="818431234_r_1" size="14" startPickup="00:00:00" endPickup="596523:14:07" startDelivery="00:00:00" endDelivery="596523:14:07" pickupServiceTime="00:00:00" deliveryServiceTime="00:00:00"/>
			<shipment id="shipment_15" from="333784189_2" to="293833181_r_2" size="5" startPickup="00:00:00" endPickup="596523:14:07" startDelivery="00:00:00" endDelivery="596523:14:07" pickupServiceTime="00:00:00" deliveryServiceTime="00:00:00"/>
			<shipment id="shipment_16" from="333784189_r_3" to="8412194_0" size="7" startPickup="00:00:00" endPickup="596523:14:07" startDelivery="00:00:00" endDelivery="596523:14:07" pickupServiceTime="00:00:00" deliveryServiceTime="00:00:00"/>
			<shipment id="shipment_17" from="333784189_2" to="843033252_6" size="14" startPickup="00:00:00" endPickup="596523:14:07" startDelivery="00:00:00" endDelivery="596523:14:07" pickupServiceTime="00:00:00" deliveryServiceTime="00:00:00"/>
			<shipment id="shipment_18" from="27566523_11" to="539611490_r_0-254881981_r_0" size="5" startPickup="00:00:00" endPickup="596523:14:07" startDelivery="00:00:00" endDelivery="596523:14:07" pickupServiceTime="00:00:00" deliveryServiceTime="00:00:00"/>
			<shipment id="shipment_11" from="27566523_r_10" to="1260634805_3" size="7" startPickup="00:00:00" endPickup="596523:14:07" startDelivery="00:00:00" endDelivery="596523:14:07" pickupServiceTime="00:00:00" deliveryServiceTime="00:00:00"/>
			<shipment id="shipment_12" from="333784188_1" to="10155487_r_10" size="16" startPickup="00:00:00" endPickup="596523:14:07" startDelivery="00:00:00" endDelivery="596523:14:07" pickupServiceTime="00:00:00" deliveryServiceTime="00:00:00"/>
			<shipment id="shipment_13" from="333784188_1" to="123929457_4" size="20" startPickup="00:00:00" endPickup="596523:14:07" startDelivery="00:00:00" endDelivery="596523:14:07" pickupServiceTime="00:00:00" deliveryServiceTime="00:00:00"/>
			<shipment id="shipment_14" from="333784189_r_3" to="53064217_0" size="18" startPickup="00:00:00" endPickup="596523:14:07" startDelivery="00:00:00" endDelivery="596523:14:07" pickupServiceTime="00:00:00" deliveryServiceTime="00:00:00"/>
			<shipment id="shipment_10" from="333784189_r_3" to="1120405500_0" size="24" startPickup="00:00:00" endPickup="596523:14:07" startDelivery="00:00:00" endDelivery="596523:14:07" pickupServiceTime="00:00:00" deliveryServiceTime="00:00:00"/>
			<shipment id="shipment_26" from="333784188_r_3" to="251394988_r_1" size="20" startPickup="00:00:00" endPickup="596523:14:07" startDelivery="00:00:00" endDelivery="596523:14:07" pickupServiceTime="00:00:00" deliveryServiceTime="00:00:00"/>
			<shipment id="shipment_27" from="333784188_1" to="215299349_r_2" size="21" startPickup="00:00:00" endPickup="596523:14:07" startDelivery="00:00:00" endDelivery="596523:14:07" pickupServiceTime="00:00:00" deliveryServiceTime="00:00:00"/>
			<shipment id="shipment_28" from="333784189_r_3" to="126348337_11-126348337_12-126348337_13-126348337_14-126348337_15" size="23" startPickup="00:00:00" endPickup="596523:14:07" startDelivery="00:00:00" endDelivery="596523:14:07" pickupServiceTime="00:00:00" deliveryServiceTime="00:00:00"/>
			<shipment id="shipment_29" from="27566523_r_10" to="23349994_r_7" size="21" startPickup="00:00:00" endPickup="596523:14:07" startDelivery="00:00:00" endDelivery="596523:14:07" pickupServiceTime="00:00:00" deliveryServiceTime="00:00:00"/>
			<shipment id="shipment_22" from="27566523_r_10" to="126348346_5" size="8" startPickup="00:00:00" endPickup="596523:14:07" startDelivery="00:00:00" endDelivery="596523:14:07" pickupServiceTime="00:00:00" deliveryServiceTime="00:00:00"/>
			<shipment id="shipment_23" from="27566523_r_10" to="254881980_5" size="5" startPickup="00:00:00" endPickup="596523:14:07" startDelivery="00:00:00" endDelivery="596523:14:07" pickupServiceTime="00:00:00" deliveryServiceTime="00:00:00"/>
			<shipment id="shipment_24" from="333784188_r_3" to="8055720_5" size="24" startPickup="00:00:00" endPickup="596523:14:07" startDelivery="00:00:00" endDelivery="596523:14:07" pickupServiceTime="00:00:00" deliveryServiceTime="00:00:00"/>
			<shipment id="shipment_25" from="333784189_2" to="306879881_r_0" size="5" startPickup="00:00:00" endPickup="596523:14:07" startDelivery="00:00:00" endDelivery="596523:14:07" pickupServiceTime="00:00:00" deliveryServiceTime="00:00:00"/>
			<shipment id="shipment_20" from="27566523_11" to="844373392_r_0" size="16" startPickup="00:00:00" endPickup="596523:14:07" startDelivery="00:00:00" endDelivery="596523:14:07" pickupServiceTime="00:00:00" deliveryServiceTime="00:00:00"/>
			<shipment id="shipment_21" from="333784189_2" to="843033251_4-843033251_5" size="12" startPickup="00:00:00" endPickup="596523:14:07" startDelivery="00:00:00" endDelivery="596523:14:07" pickupServiceTime="00:00:00" deliveryServiceTime="00:00:00"/>
			<shipment id="shipment_169" from="27566523_r_10" to="608715598_6" size="6" startPickup="00:00:00" endPickup="596523:14:07" startDelivery="00:00:00" endDelivery="596523:14:07" pickupServiceTime="00:00:00" deliveryServiceTime="00:00:00"/>
			<shipment id="shipment_168" from="333784188_1" to="295116814_r_1" size="24" startPickup="00:00:00" endPickup="596523:14:07" startDelivery="00:00:00" endDelivery="596523:14:07" pickupServiceTime="00:00:00" deliveryServiceTime="00:00:00"/>
			<shipment id="shipment_167" from="333784188_1" to="99500147_5" size="25" startPickup="00:00:00" endPickup="596523:14:07" startDelivery="00:00:00" endDelivery="596523:14:07" pickupServiceTime="00:00:00" deliveryServiceTime="00:00:00"/>
			<shipment id="shipment_166" from="333784189_r_3" to="27062245_r_15-27062245_r_16-27062245_r_17" size="8" startPickup="00:00:00" endPickup="596523:14:07" startDelivery="00:00:00" endDelivery="596523:14:07" pickupServiceTime="00:00:00" deliveryServiceTime="00:00:00"/>