<?xml version="1.0" encoding="UTF-8"?>

<carriers xmlns="http://www.matsim.org/files/dtd" xmlns:xsi="http://www.w3.org/2001/XMLSchema-instance" xsi:schemaLocation="http://www.matsim.org/files/dtd http://www.matsim.org/files/dtd/carriersDefinitions_v2.1.xsd">
	<carrier id="Carrier1">
		<attributes>
			<attribute name="jspritIterations" class="java.lang.Integer">100</attribute>
		</attributes>
		<capabilities fleetSize="INFINITE">
			<vehicles>
				<vehicle id="CB_0" depotLinkId="27566523_11" typeId="cargoBike" earliestStart="00:00:00" latestEnd="596523:14:07"/>
				<vehicle id="CB_1" depotLinkId="333784188_r_3" typeId="cargoBike" earliestStart="00:00:00" latestEnd="596523:14:07"/>
				<vehicle id="CB_2" depotLinkId="333784189_r_3" typeId="cargoBike" earliestStart="00:00:00" latestEnd="596523:14:07"/>
				<vehicle id="CB_3" depotLinkId="27566523_r_10" typeId="cargoBike" earliestStart="00:00:00" latestEnd="596523:14:07"/>
				<vehicle id="CB_4" depotLinkId="333784189_2" typeId="cargoBike" earliestStart="00:00:00" latestEnd="596523:14:07"/>
				<vehicle id="CB_5" depotLinkId="333784188_1" typeId="cargoBike" earliestStart="00:00:00" latestEnd="596523:14:07"/>
			</vehicles>
		</capabilities>
		<shipments>
			<shipment id="shipment_77" from="333784188_r_3" to="125835562_6" size="6" startPickup="00:00:00" endPickup="596523:14:07" startDelivery="00:00:00" endDelivery="596523:14:07" pickupServiceTime="00:00:00" deliveryServiceTime="00:00:00"/>
			<shipment id="shipment_78" from="333784189_r_3" to="891578003_r_0" size="16" startPickup="00:00:00" endPickup="596523:14:07" startDelivery="00:00:00" endDelivery="596523:14:07" pickupServiceTime="00:00:00" deliveryServiceTime="00:00:00"/>
			<shipment id="shipment_79" from="27566523_11" to="578662071_r_0" size="21" startPickup="00:00:00" endPickup="596523:14:07" startDelivery="00:00:00" endDelivery="596523:14:07" pickupServiceTime="00:00:00" deliveryServiceTime="00:00:00"/>
			<shipment id="shipment_73" from="27566523_r_10" to="698685594_1" size="12" startPickup="00:00:00" endPickup="596523:14:07" startDelivery="00:00:00" endDelivery="596523:14:07" pickupServiceTime="00:00:00" deliveryServiceTime="00:00:00"/>
			<shipment id="shipment_74" from="333784188_r_3" to="662329855_0" size="17" startPickup="00:00:00" endPickup="596523:14:07" startDelivery="00:00:00" endDelivery="596523:14:07" pickupServiceTime="00:00:00" deliveryServiceTime="00:00:00"/>
			<shipment id="shipment_75" from="27566523_11" to="843534478_r_0" size="15" startPickup="00:00:00" endPickup="596523:14:07" startDelivery="00:00:00" endDelivery="596523:14:07" pickupServiceTime="00:00:00" deliveryServiceTime="00:00:00"/>
			<shipment id="shipment_76" from="333784189_2" to="100794802_8" size="22" startPickup="00:00:00" endPickup="596523:14:07" startDelivery="00:00:00" endDelivery="596523:14:07" pickupServiceTime="00:00:00" deliveryServiceTime="00:00:00"/>
			<shipment id="shipment_80" from="333784188_r_3" to="10155487_4" size="21" startPickup="00:00:00" endPickup="596523:14:07" startDelivery="00:00:00" endDelivery="596523:14:07" pickupServiceTime="00:00:00" deliveryServiceTime="00:00:00"/>
			<shipment id="shipment_81" from="333784188_1" to="38154614_1" size="25" startPickup="00:00:00" endPickup="596523:14:07" startDelivery="00:00:00" endDelivery="596523:14:07" pickupServiceTime="00:00:00" deliveryServiceTime="00:00:00"/>
			<shipment id="shipment_82" from="333784189_2" to="9852941_7" size="11" startPickup="00:00:00" endPickup="596523:14:07" startDelivery="00:00:00" endDelivery="596523:14:07" pickupServiceTime="00:00:00" deliveryServiceTime="00:00:00"/>
			<shipment id="shipment_83" from="27566523_11" to="3992549_1" size="9" startPickup="00:00:00" endPickup="596523:14:07" startDelivery="00:00:00" endDelivery="596523:14:07" pickupServiceTime="00:00:00" deliveryServiceTime="00:00:00"/>
			<shipment id="shipment_88" from="333784189_2" to="1085334276_0-1085334276_1" size="21" startPickup="00:00:00" endPickup="596523:14:07" startDelivery="00:00:00" endDelivery="596523:14:07" pickupServiceTime="00:00:00" deliveryServiceTime="00:00:00"/>
			<shipment id="shipment_89" from="333784188_r_3" to="290207861_3-290207861_4-290207861_5" size="25" startPickup="00:00:00" endPickup="596523:14:07" startDelivery="00:00:00" endDelivery="596523:14:07" pickupServiceTime="00:00:00" deliveryServiceTime="00:00:00"/>
			<shipment id="shipment_84" from="333784189_r_3" to="578662087_1" size="23" startPickup="00:00:00" endPickup="596523:14:07" startDelivery="00:00:00" endDelivery="596523:14:07" pickupServiceTime="00:00:00" deliveryServiceTime="00:00:00"/>
			<shipment id="shipment_85" from="333784189_2" to="293794394_r_0" size="5" startPickup="00:00:00" endPickup="596523:14:07" startDelivery="00:00:00" endDelivery="596523:14:07" pickupServiceTime="00:00:00" deliveryServiceTime="00:00:00"/>
			<shipment id="shipment_86" from="27566523_11" to="194664238_0" size="10" startPickup="00:00:00" endPickup="596523:14:07" startDelivery="00:00:00" endDelivery="596523:14:07" pickupServiceTime="00:00:00" deliveryServiceTime="00:00:00"/>
			<shipment id="shipment_87" from="27566523_r_10" to="160134553_7" size="17" startPickup="00:00:00" endPickup="596523:14:07" startDelivery="00:00:00" endDelivery="596523:14:07" pickupServiceTime="00:00:00" deliveryServiceTime="00:00:00"/>
			<shipment id="shipment_91" from="333784189_2" to="1193493546_1-1193493546_2" size="23" startPickup="00:00:00" endPickup="596523:14:07" startDelivery="00:00:00" endDelivery="596523:14:07" pickupServiceTime="00:00:00" deliveryServiceTime="00:00:00"/>
			<shipment id="shipment_92" from="27566523_r_10" to="148252702_0" size="13" startPickup="00:00:00" endPickup="596523:14:07" startDelivery="00:00:00" endDelivery="596523:14:07" pickupServiceTime="00:00:00" deliveryServiceTime="00:00:00"/>
			<shipment id="shipment_93" from="27566523_r_10" to="295225456_2-295225456_3" size="17" startPickup="00:00:00" endPickup="596523:14:07" startDelivery="00:00:00" endDelivery="596523:14:07" pickupServiceTime="00:00:00" deliveryServiceTime="00:00:00"/>
			<shipment id="shipment_94" from="333784189_r_3" to="3343967_4-3343967_5" size="17" startPickup="00:00:00" endPickup="596523:14:07" startDelivery="00:00:00" endDelivery="596523:14:07" pickupServiceTime="00:00:00" deliveryServiceTime="00:00:00"/>
			<shipment id="shipment_90" from="333784189_2" to="150056711_0" size="17" startPickup="00:00:00" endPickup="596523:14:07" startDelivery="00:00:00" endDelivery="596523:14:07" pickupServiceTime="00:00:00" deliveryServiceTime="00:00:00"/>
			<shipment id="shipment_59" from="333784189_2" to="48247090_r_5-48247090_r_6-48247090_r_7" size="17" startPickup="00:00:00" endPickup="596523:14:07" startDelivery="00:00:00" endDelivery="596523:14:07" pickupServiceTime="00:00:00" deliveryServiceTime="00:00:00"/>
			<shipment id="shipment_1" from="27566523_11" to="147850134_r_1" size="25" startPickup="00:00:00" endPickup="596523:14:07" startDelivery="00:00:00" endDelivery="596523:14:07" pickupServiceTime="00:00:00" deliveryServiceTime="00:00:00"/>
			<shipment id="shipment_55" from="333784188_r_3" to="15083393_0" size="23" startPickup="00:00:00" endPickup="596523:14:07" startDelivery="00:00:00" endDelivery="596523:14:07" pickupServiceTime="00:00:00" deliveryServiceTime="00:00:00"/>
			<shipment id="shipment_0" from="27566523_11" to="150056717_9" size="25" startPickup="00:00:00" endPickup="596523:14:07" startDelivery="00:00:00" endDelivery="596523:14:07" pickupServiceTime="00:00:00" deliveryServiceTime="00:00:00"/>
			<shipment id="shipment_56" from="333784189_r_3" to="303190638_1-303190638_2" size="15" startPickup="00:00:00" endPickup="596523:14:07" startDelivery="00:00:00" endDelivery="596523:14:07" pickupServiceTime="00:00:00" deliveryServiceTime="00:00:00"/>
			<shipment id="shipment_57" from="333784189_r_3" to="147850134_7" size="22" startPickup="00:00:00" endPickup="596523:14:07" startDelivery="00:00:00" endDelivery="596523:14:07" pickupServiceTime="00:00:00" deliveryServiceTime="00:00:00"/>
			<shipment id="shipment_58" from="333784189_r_3" to="893949663_11" size="9" startPickup="00:00:00" endPickup="596523:14:07" startDelivery="00:00:00" endDelivery="596523:14:07" pickupServiceTime="00:00:00" deliveryServiceTime="00:00:00"/>
			<shipment id="shipment_109" from="27566523_r_10" to="147850135_17" size="20" startPickup="00:00:00" endPickup="596523:14:07" startDelivery="00:00:00" endDelivery="596523:14:07" pickupServiceTime="00:00:00" deliveryServiceTime="00:00:00"/>
			<shipment id="shipment_5" from="333784189_2" to="3991621_0" size="25" startPickup="00:00:00" endPickup="596523:14:07" startDelivery="00:00:00" endDelivery="596523:14:07" pickupServiceTime="00:00:00" deliveryServiceTime="00:00:00"/>
			<shipment id="shipment_51" from="27566523_11" to="16767290_1-16767290_2" size="18" startPickup="00:00:00" endPickup="596523:14:07" startDelivery="00:00:00" endDelivery="596523:14:07" pickupServiceTime="00:00:00" deliveryServiceTime="00:00:00"/>
			<shipment id="shipment_108" from="333784188_1" to="8412180_r_6" size="10" startPickup="00:00:00" endPickup="596523:14:07" startDelivery="00:00:00" endDelivery="596523:14:07" pickupServiceTime="00:00:00" deliveryServiceTime="00:00:00"/>
			<shipment id="shipment_4" from="333784189_2" to="539611483_r_0-539611483_r_1-539611483_r_2" size="25" startPickup="00:00:00" endPickup="596523:14:07" startDelivery="00:00:00" endDelivery="596523:14:07" pickupServiceTime="00:00:00" deliveryServiceTime="00:00:00"/>
			<shipment id="shipment_52" from="333784189_2" to="898173885_2-898173885_3" size="22" startPickup="00:00:00" endPickup="596523:14:07" startDelivery="00:00:00" endDelivery="596523:14:07" pickupServiceTime="00:00:00" deliveryServiceTime="00:00:00"/>
			<shipment id="shipment_107" from="333784189_2" to="818431311_r_0-818431312_r_0" size="16" startPickup="00:00:00" endPickup="596523:14:07" startDelivery="00:00:00" endDelivery="596523:14:07" pickupServiceTime="00:00:00" deliveryServiceTime="00:00:00"/>
			<shipment id="shipment_3" from="333784188_r_3" to="858842167_0" size="25" startPickup="00:00:00" endPickup="596523:14:07" startDelivery="00:00:00" endDelivery="596523:14:07" pickupServiceTime="00:00:00" deliveryServiceTime="00:00:00"/>
			<shipment id="shipment_53" from="333784189_r_3" to="694994268_r_0" size="7" startPickup="00:00:00" endPickup="596523:14:07" startDelivery="00:00:00" endDelivery="596523:14:07" pickupServiceTime="00:00:00" deliveryServiceTime="00:00:00"/>
			<shipment id="shipment_106" from="333784189_2" to="3390197_r_1" size="21" startPickup="00:00:00" endPickup="596523:14:07" startDelivery="00:00:00" endDelivery="596523:14:07" pickupServiceTime="00:00:00" deliveryServiceTime="00:00:00"/>
			<shipment id="shipment_2" from="333784188_r_3" to="138003041_r_0" size="25" startPickup="00:00:00" endPickup="596523:14:07" startDelivery="00:00:00" endDelivery="596523:14:07" pickupServiceTime="00:00:00" deliveryServiceTime="00:00:00"/>
			<shipment id="shipment_54" from="333784188_1" to="3343966_r_0" size="15" startPickup="00:00:00" endPickup="596523:14:07" startDelivery="00:00:00" endDelivery="596523:14:07" pickupServiceTime="00:00:00" deliveryServiceTime="00:00:00"/>
			<shipment id="shipment_105" from="333784188_1" to="27062245_r_7-27062245_r_8" size="15" startPickup="00:00:00" endPickup="596523:14:07" startDelivery="00:00:00" endDelivery="596523:14:07" pickupServiceTime="00:00:00" deliveryServiceTime="00:00:00"/>
			<shipment id="shipment_9" from="27566523_11" to="608715624_2" size="7" startPickup="00:00:00" endPickup="596523:14:07" startDelivery="00:00:00" endDelivery="596523:14:07" pickupServiceTime="00:00:00" deliveryServiceTime="00:00:00"/>
			<shipment id="shipment_104" from="333784189_r_3" to="456815189_3" size="13" startPickup="00:00:00" endPickup="596523:14:07" startDelivery="00:00:00" endDelivery="596523:14:07" pickupServiceTime="00:00:00" deliveryServiceTime="00:00:00"/>
			<shipment id="shipment_8" from="333784189_r_3" to="819086209_r_2" size="7" startPickup="00:00:00" endPickup="596523:14:07" startDelivery="00:00:00" endDelivery="596523:14:07" pickupServiceTime="00:00:00" deliveryServiceTime="00:00:00"/>
			<shipment id="shipment_103" from="333784189_r_3" to="439142854_0" size="5" startPickup="00:00:00" endPickup="596523:14:07" startDelivery="00:00:00" endDelivery="596523:14:07" pickupServiceTime="00:00:00" deliveryServiceTime="00:00:00"/>
			<shipment id="shipment_7" from="27566523_11" to="8101956_3" size="8" startPickup="00:00:00" endPickup="596523:14:07" startDelivery="00:00:00" endDelivery="596523:14:07" pickupServiceTime="00:00:00" deliveryServiceTime="00:00:00"/>
			<shipment id="shipment_60" from="333784188_1" to="254882030_0" size="5" startPickup="00:00:00" endPickup="596523:14:07" startDelivery="00:00:00" endDelivery="596523:14:07" pickupServiceTime="00:00:00" deliveryServiceTime="00:00:00"/>
			<shipment id="shipment_102" from="333784188_r_3" to="88361297_1" size="21" startPickup="00:00:00" endPickup="596523:14:07" startDelivery="00:00:00" endDelivery="596523:14:07" pickupServiceTime="00:00:00" deliveryServiceTime="00:00:00"/>
			<shipment id="shipment_6" from="27566523_11" to="566103884_7" size="25" startPickup="00:00:00" endPickup="596523:14:07" startDelivery="00:00:00" endDelivery="596523:14:07" pickupServiceTime="00:00:00" deliveryServiceTime="00:00:00"/>
			<shipment id="shipment_61" from="27566523_r_10" to="319454046_r_0" size="6" startPickup="00:00:00" endPickup="596523:14:07" startDelivery="00:00:00" endDelivery="596523:14:07" pickupServiceTime="00:00:00" deliveryServiceTime="00:00:00"/>
			<shipment id="shipment_101" from="333784188_1" to="99500153_r_2" size="22" startPickup="00:00:00" endPickup="596523:14:07" startDelivery="00:00:00" endDelivery="596523:14:07" pickupServiceTime="00:00:00" deliveryServiceTime="00:00:00"/>
			<shipment id="shipment_100" from="27566523_11" to="316395307_1" size="9" startPickup="00:00:00" endPickup="596523:14:07" startDelivery="00:00:00" endDelivery="596523:14:07" pickupServiceTime="00:00:00" deliveryServiceTime="00:00:00"/>
			<shipment id="shipment_66" from="27566523_11" to="3991621_r_0-3991621_r_1" size="23" startPickup="00:00:00" endPickup="596523:14:07" startDelivery="00:00:00" endDelivery="596523:14:07" pickupServiceTime="00:00:00" deliveryServiceTime="00:00:00"/>
			<shipment id="shipment_67" from="333784188_r_3" to="3992549_r_3" size="23" startPickup="00:00:00" endPickup="596523:14:07" startDelivery="00:00:00" endDelivery="596523:14:07" pickupServiceTime="00:00:00" deliveryServiceTime="00:00:00"/>
			<shipment id="shipment_68" from="333784189_2" to="8127969_r_8-8127969_r_9" size="19" startPickup="00:00:00" endPickup="596523:14:07" startDelivery="00:00:00" endDelivery="596523:14:07" pickupServiceTime="00:00:00" deliveryServiceTime="00:00:00"/>
			<shipment id="shipment_69" from="27566523_11" to="25922245_7" size="8" startPickup="00:00:00" endPickup="596523:14:07" startDelivery="00:00:00" endDelivery="596523:14:07" pickupServiceTime="00:00:00" deliveryServiceTime="00:00:00"/>
			<shipment id="shipment_62" from="333784189_2" to="185488466_r_1" size="5" startPickup="00:00:00" endPickup="596523:14:07" startDelivery="00:00:00" endDelivery="596523:14:07" pickupServiceTime="00:00:00" deliveryServiceTime="00:00:00"/>
			<shipment id="shipment_63" from="27566523_r_10" to="27062245_r_4" size="5" startPickup="00:00:00" endPickup="596523:14:07" startDelivery="00:00:00" endDelivery="596523:14:07" pickupServiceTime="00:00:00" deliveryServiceTime="00:00:00"/>
			<shipment id="shipment_64" from="333784189_r_3" to="8127969_r_4" size="11" startPickup="00:00:00" endPickup="596523:14:07" startDelivery="00:00:00" endDelivery="596523:14:07" pickupServiceTime="00:00:00" deliveryServiceTime="00:00:00"/>
			<shipment id="shipment_65" from="333784188_r_3" to="94816475_0" size="10" startPickup="00:00:00" endPickup="596523:14:07" startDelivery="00:00:00" endDelivery="596523:14:07" pickupServiceTime="00:00:00" deliveryServiceTime="00:00:00"/>
			<shipment id="shipment_70" from="333784188_1" to="818431297_0" size="13" startPickup="00:00:00" endPickup="596523:14:07" startDelivery="00:00:00" endDelivery="596523:14:07" pickupServiceTime="00:00:00" deliveryServiceTime="00:00:00"/>
			<shipment id="shipment_71" from="333784189_r_3" to="809218017_r_0" size="25" startPickup="00:00:00" endPickup="596523:14:07" startDelivery="00:00:00" endDelivery="596523:14:07" pickupServiceTime="00:00:00" deliveryServiceTime="00:00:00"/>
			<shipment id="shipment_72" from="333784189_r_3" to="3990534_1" size="9" startPickup="00:00:00" endPickup="596523:14:07" startDelivery="00:00:00" endDelivery="596523:14:07" pickupServiceTime="00:00:00" deliveryServiceTime="00:00:00"/>
			<shipment id="shipment_37" from="27566523_r_10" to="86249595_3" size="24" startPickup="00:00:00" endPickup="596523:14:07" startDelivery="00:00:00" endDelivery="596523:14:07" pickupServiceTime="00:00:00" deliveryServiceTime="00:00:00"/>
			<shipment id="shipment_38" from="27566523_r_10" to="3752553_22" size="6" startPickup="00:00:00" endPickup="596523:14:07" startDelivery="00:00:00" endDelivery="596523:14:07" pickupServiceTime="00:00:00" deliveryServiceTime="00:00:00"/>
			<shipment id="shipment_39" from="27566523_r_10" to="539611486_0" size="23" startPickup="00:00:00" endPickup="596523:14:07" startDelivery="00:00:00" endDelivery="596523:14:07" pickupServiceTime="00:00:00" deliveryServiceTime="00:00:00"/>
			<shipment id="shipment_33" from="333784189_r_3" to="123934118_r_1-123934118_r_2" size="14" startPickup="00:00:00" endPickup="596523:14:07" startDelivery="00:00:00" endDelivery="596523:14:07" pickupServiceTime="00:00:00" deliveryServiceTime="00:00:00"/>
			<shipment id="shipment_34" from="333784189_r_3" to="147850134_r_2" size="14" startPickup="00:00:00" endPickup="596523:14:07" startDelivery="00:00:00" endDelivery="596523:14:07" pickupServiceTime="00:00:00" deliveryServiceTime="00:00:00"/>
			<shipment id="shipment_35" from="333784189_r_3" to="3424505_7" size="20" startPickup="00:00:00" endPickup="596523:14:07" startDelivery="00:00:00" endDelivery="596523:14:07" pickupServiceTime="00:00:00" deliveryServiceTime="00:00:00"/>
			<shipment id="shipment_36" from="333784188_r_3" to="40403656_10" size="10" startPickup="00:00:00" endPickup="596523:14:07" startDelivery="00:00:00" endDelivery="596523:14:07" pickupServiceTime="00:00:00" deliveryServiceTime="00:00:00"/>
			<shipment id="shipment_30" from="333784188_r_3" to="965183814_r_0" size="12" startPickup="00:00:00" endPickup="596523:14:07" startDelivery="00:00:00" endDelivery="596523:14:07" pickupServiceTime="00:00:00" deliveryServiceTime="00:00:00"/>
			<shipment id="shipment_31" from="27566523_r_10" to="461161288_r_5-461161288_r_6" size="9" startPickup="00:00:00" endPickup="596523:14:07" startDelivery="00:00:00" endDelivery="596523:14:07" pickupServiceTime="00:00:00" deliveryServiceTime="00:00:00"/>
			<shipment id="shipment_32" from="333784188_1" to="40403656_9" size="21" startPickup="00:00:00" endPickup="596523:14:07" startDelivery="00:00:00" endDelivery="596523:14:07" pickupServiceTime="00:00:00" deliveryServiceTime="00:00:00"/>
			<shipment id="shipment_48" from="333784188_r_3" to="147850139_20" size="7" startPickup="00:00:00" endPickup="596523:14:07" startDelivery="00:00:00" endDelivery="596523:14:07" pickupServiceTime="00:00:00" deliveryServiceTime="00:00:00"/>
			<shipment id="shipment_49" from="333784189_r_3" to="1193493546_r_2" size="13" startPickup="00:00:00" endPickup="596523:14:07" startDelivery="00:00:00" endDelivery="596523:14:07" pickupServiceTime="00:00:00" deliveryServiceTime="00:00:00"/>
			<shipment id="shipment_44" from="333784188_1" to="890727700_r_1" size="15" startPickup="00:00:00" endPickup="596523:14:07" startDelivery="00:00:00" endDelivery="596523:14:07" pickupServiceTime="00:00:00" deliveryServiceTime="00:00:00"/>
			<shipment id="shipment_45" from="27566523_r_10" to="95890227_r_2" size="21" startPickup="00:00:00" endPickup="596523:14:07" startDelivery="00:00:00" endDelivery="596523:14:07" pickupServiceTime="00:00:00" deliveryServiceTime="00:00:00"/>
			<shipment id="shipment_46" from="333784188_r_3" to="566103882_0" size="23" startPickup="00:00:00" endPickup="596523:14:07" startDelivery="00:00:00" endDelivery="596523:14:07" pickupServiceTime="00:00:00" deliveryServiceTime="00:00:00"/>
			<shipment id="shipment_47" from="27566523_11" to="3343952_2-665091167_0" size="22" startPickup="00:00:00" endPickup="596523:14:07" startDelivery="00:00:00" endDelivery="596523:14:07" pickupServiceTime="00:00:00" deliveryServiceTime="00:00:00"/>
			<shipment id="shipment_40" from="333784188_r_3" to="22938871_0" size="19" startPickup="00:00:00" endPickup="596523:14:07" startDelivery="00:00:00" endDelivery="596523:14:07" pickupServiceTime="00:00:00" deliveryServiceTime="00:00:00"/>
			<shipment id="shipment_41" from="27566523_r_10" to="695624644_r_0" size="8" startPickup="00:00:00" endPickup="596523:14:07" startDelivery="00:00:00" endDelivery="596523:14:07" pickupServiceTime="00:00:00" deliveryServiceTime="00:00:00"/>
			<shipment id="shipment_42" from="27566523_r_10" to="99500150_r_0" size="18" startPickup="00:00:00" endPickup="596523:14:07" startDelivery="00:00:00" endDelivery="596523:14:07" pickupServiceTime="00:00:00" deliveryServiceTime="00:00:00"/>
			<shipment id="shipment_43" from="27566523_11" to="189453003_r_3" size="6" startPickup="00:00:00" endPickup="596523:14:07" startDelivery="00:00:00" endDelivery="596523:14:07" pickupServiceTime="00:00:00" deliveryServiceTime="00:00:00"/>
			<shipment id="shipment_50" from="27566523_r_10" to="3869826_3" size="21" startPickup="00:00:00" endPickup="596523:14:07" startDelivery="00:00:00" endDelivery="596523:14:07" pickupServiceTime="00:00:00" deliveryServiceTime="00:00:00"/>
			<shipment id="shipment_199" from="27566523_r_10" to="15960801_0" size="14" startPickup="00:00:00" endPickup="596523:14:07" startDelivery="00:00:00" endDelivery="596523:14:07" pickupServiceTime="00:00:00" deliveryServiceTime="00:00:00"/>
			<shipment id="shipment_198" from="27566523_r_10" to="1284159768_1" size="21" startPickup="00:00:00" endPickup="596523:14:07" startDelivery="00:00:00" endDelivery="596523:14:07" pickupServiceTime="00:00:00" deliveryServiceTime="00:00:00"/>
			<shipment id="shipment_197" from="333784188_1" to="9826692_5" size="17" startPickup="00:00:00" endPickup="596523:14:07" startDelivery="00:00:00" endDelivery="596523:14:07" pickupServiceTime="00:00:00" deliveryServiceTime="00:00:00"/>
			<shipment id="shipment_196" from="333784189_2" to="843033243_6" size="25" startPickup="00:00:00" endPickup="596523:14:07" startDelivery="00:00:00" endDelivery="596523:14:07" pickupServiceTime="00:00:00" deliveryServiceTime="00:00:00"/>
			<shipment id="shipment_195" from="333784189_2" to="509324734_r_4" size="21" startPickup="00:00:00" endPickup="596523:14:07" startDelivery="00:00:00" endDelivery="596523:14:07" pickupServiceTime="00:00:00" deliveryServiceTime="00:00:00"/>
			<shipment id="shipment_194" from="333784188_1" to="3495647_r_3-3495647_r_4" size="12" startPickup="00:00:00" endPickup="596523:14:07" startDelivery="00:00:00" endDelivery="596523:14:07" pickupServiceTime="00:00:00" deliveryServiceTime="00:00:00"/>
			<shipment id="shipment_193" from="333784188_1" to="8127971_7-8127971_8" size="11" startPickup="00:00:00" endPickup="596523:14:07" startDelivery="00:00:00" endDelivery="596523:14:07" pickupServiceTime="00:00:00" deliveryServiceTime="00:00:00"/>
			<shipment id="shipment_192" from="27566523_11" to="809218017_2" size="7" startPickup="00:00:00" endPickup="596523:14:07" startDelivery="00:00:00" endDelivery="596523:14:07" pickupServiceTime="00:00:00" deliveryServiceTime="00:00:00"/>
			<shipment id="shipment_191" from="333784188_r_3" to="147856945_8" size="7" startPickup="00:00:00" endPickup="596523:14:07" startDelivery="00:00:00" endDelivery="596523:14:07" pickupServiceTime="00:00:00" deliveryServiceTime="00:00:00"/>
			<shipment id="shipment_190" from="333784189_r_3" to="3343975_7" size="16" startPickup="00:00:00" endPickup="596523:14:07" startDelivery="00:00:00" endDelivery="596523:14:07" pickupServiceTime="00:00:00" deliveryServiceTime="00:00:00"/>
			<shipment id="shipment_19" from="27566523_11" to="126679459_2" size="24" startPickup="00:00:00" endPickup="596523:14:07" startDelivery="00:00:00" endDelivery="596523:14:07" pickupServiceTime="00:00:00" deliveryServiceTime="00:00:00"/>
			<shipment id="shipment_15" from="333784188_1" to="86249610_12" size="22" startPickup="00:00:00" endPickup="596523:14:07" startDelivery="00:00:00" endDelivery="596523:14:07" pickupServiceTime="00:00:00" deliveryServiceTime="00:00:00"/>
			<shipment id="shipment_16" from="27566523_r_10" to="147850139_r_0-147850139_r_1" size="21" startPickup="00:00:00" endPickup="596523:14:07" startDelivery="00:00:00" endDelivery="596523:14:07" pickupServiceTime="00:00:00" deliveryServiceTime="00:00:00"/>
			<shipment id="shipment_17" from="333784189_r_3" to="4746850_0-4746850_1" size="16" startPickup="00:00:00" endPickup="596523:14:07" startDelivery="00:00:00" endDelivery="596523:14:07" pickupServiceTime="00:00:00" deliveryServiceTime="00:00:00"/>
			<shipment id="shipment_18" from="333784188_1" to="290957559_r_1" size="18" startPickup="00:00:00" endPickup="596523:14:07" startDelivery="00:00:00" endDelivery="596523:14:07" pickupServiceTime="00:00:00" deliveryServiceTime="00:00:00"/>
			<shipment id="shipment_11" from="333784189_r_3" to="126415113_3" size="8" startPickup="00:00:00" endPickup="596523:14:07" startDelivery="00:00:00" endDelivery="596523:14:07" pickupServiceTime="00:00:00" deliveryServiceTime="00:00:00"/>
			<shipment id="shipment_12" from="333784189_r_3" to="16771608_0" size="16" startPickup="00:00:00" endPickup="596523:14:07" startDelivery="00:00:00" endDelivery="596523:14:07" pickupServiceTime="00:00:00" deliveryServiceTime="00:00:00"/>
			<shipment id="shipment_13" from="333784189_2" to="136840745_4-136840745_5" size="17" startPickup="00:00:00" endPickup="596523:14:07" startDelivery="00:00:00" endDelivery="596523:14:07" pickupServiceTime="00:00:00" deliveryServiceTime="00:00:00"/>
			<shipment id="shipment_14" from="333784189_r_3" to="897141780_0-897141780_1" size="13" startPickup="00:00:00" endPickup="596523:14:07" startDelivery="00:00:00" endDelivery="596523:14:07" pickupServiceTime="00:00:00" deliveryServiceTime="00:00:00"/>
			<shipment id="shipment_10" from="333784188_r_3" to="48392358_10" size="12" startPickup="00:00:00" endPickup="596523:14:07" startDelivery="00:00:00" endDelivery="596523:14:07" pickupServiceTime="00:00:00" deliveryServiceTime="00:00:00"/>
			<shipment id="shipment_26" from="333784188_r_3" to="809218011_1" size="10" startPickup="00:00:00" endPickup="596523:14:07" startDelivery="00:00:00" endDelivery="596523:14:07" pickupServiceTime="00:00:00" deliveryServiceTime="00:00:00"/>
			<shipment id="shipment_27" from="27566523_11" to="8127971_4" size="20" startPickup="00:00:00" endPickup="596523:14:07" startDelivery="00:00:00" endDelivery="596523:14:07" pickupServiceTime="00:00:00" deliveryServiceTime="00:00:00"/>
			<shipment id="shipment_28" from="27566523_11" to="330300723_r_0" size="10" startPickup="00:00:00" endPickup="596523:14:07" startDelivery="00:00:00" endDelivery="596523:14:07" pickupServiceTime="00:00:00" deliveryServiceTime="00:00:00"/>
			<shipment id="shipment_29" from="27566523_r_10" to="295809315_0" size="7" startPickup="00:00:00" endPickup="596523:14:07" startDelivery="00:00:00" endDelivery="596523:14:07" pickupServiceTime="00:00:00" deliveryServiceTime="00:00:00"/>
			<shipment id="shipment_22" from="333784189_r_3" to="608715644_r_2" size="7" startPickup="00:00:00" endPickup="596523:14:07" startDelivery="00:00:00" endDelivery="596523:14:07" pickupServiceTime="00:00:00" deliveryServiceTime="00:00:00"/>
			<shipment id="shipment_23" from="333784189_2" to="150056707_4" size="12" startPickup="00:00:00" endPickup="596523:14:07" startDelivery="00:00:00" endDelivery="596523:14:07" pickupServiceTime="00:00:00" deliveryServiceTime="00:00:00"/>
			<shipment id="shipment_24" from="27566523_11" to="290207861_7-290207861_8" size="24" startPickup="00:00:00" endPickup="596523:14:07" startDelivery="00:00:00" endDelivery="596523:14:07" pickupServiceTime="00:00:00" deliveryServiceTime="00:00:00"/>
			<shipment id="shipment_25" from="27566523_11" to="292056886_2" size="9" startPickup="00:00:00" endPickup="596523:14:07" startDelivery="00:00:00" endDelivery="596523:14:07" pickupServiceTime="00:00:00" deliveryServiceTime="00:00:00"/>
			<shipment id="shipment_20" from="27566523_r_10" to="892076048_r_1" size="7" startPickup="00:00:00" endPickup="596523:14:07" startDelivery="00:00:00" endDelivery="596523:14:07" pickupServiceTime="00:00:00" deliveryServiceTime="00:00:00"/>
			<shipment id="shipment_21" from="333784189_2" to="315785053_2" size="9" startPickup="00:00:00" endPickup="596523:14:07" startDelivery="00:00:00" endDelivery="596523:14:07" pickupServiceTime="00:00:00" deliveryServiceTime="00:00:00"/>
			<shipment id="shipment_169" from="333784189_r_3" to="314487487_r_0" size="13" startPickup="00:00:00" endPickup="596523:14:07" startDelivery="00:00:00" endDelivery="596523:14:07" pickupServiceTime="00:00:00" deliveryServiceTime="00:00:00"/>
			<shipment id="shipment_168" from="333784188_r_3" to="3869831_1" size="16" startPickup="00:00:00" endPickup="596523:14:07" startDelivery="00:00:00" endDelivery="596523:14:07" pickupServiceTime="00:00:00" deliveryServiceTime="00:00:00"/>
			<shipment id="shipment_167" from="27566523_r_10" to="94816470_r_1" size="10" startPickup="00:00:00" endPickup="596523:14:07" startDelivery="00:00:00" endDelivery="596523:14:07" pickupServiceTime="00:00:00" deliveryServiceTime="00:00:00"/>