<?xml version="1.0" encoding="UTF-8"?>

<carriers xmlns="http://www.matsim.org/files/dtd" xmlns:xsi="http://www.w3.org/2001/XMLSchema-instance" xsi:schemaLocation="http://www.matsim.org/files/dtd http://www.matsim.org/files/dtd/carriersDefinitions_v2.1.xsd">
	<carrier id="Carrier1">
		<attributes>
			<attribute name="jspritIterations" class="java.lang.Integer">100</attribute>
		</attributes>
		<capabilities fleetSize="INFINITE">
			<vehicles>
				<vehicle id="van_0" depotLinkId="27566523_r_10" typeId="van" earliestStart="00:00:00" latestEnd="596523:14:07"/>
				<vehicle id="van_1" depotLinkId="333784189_1" typeId="van" earliestStart="00:00:00" latestEnd="596523:14:07"/>
				<vehicle id="van_2" depotLinkId="333784189_r_2" typeId="van" earliestStart="00:00:00" latestEnd="596523:14:07"/>
				<vehicle id="van_3" depotLinkId="333784188_r_2" typeId="van" earliestStart="00:00:00" latestEnd="596523:14:07"/>
				<vehicle id="van_4" depotLinkId="27566523_r_9" typeId="van" earliestStart="00:00:00" latestEnd="596523:14:07"/>
				<vehicle id="van_5" depotLinkId="333784188_0" typeId="van" earliestStart="00:00:00" latestEnd="596523:14:07"/>
				<vehicle id="van_6" depotLinkId="333784189_2" typeId="van" earliestStart="00:00:00" latestEnd="596523:14:07"/>
				<vehicle id="van_7" depotLinkId="27566523_10" typeId="van" earliestStart="00:00:00" latestEnd="596523:14:07"/>
				<vehicle id="van_8" depotLinkId="333784188_1" typeId="van" earliestStart="00:00:00" latestEnd="596523:14:07"/>
				<vehicle id="van_9" depotLinkId="27566523_11" typeId="van" earliestStart="00:00:00" latestEnd="596523:14:07"/>
				<vehicle id="van_10" depotLinkId="333784189_r_3" typeId="van" earliestStart="00:00:00" latestEnd="596523:14:07"/>
				<vehicle id="van_11" depotLinkId="333784188_r_3" typeId="van" earliestStart="00:00:00" latestEnd="596523:14:07"/>
			</vehicles>
		</capabilities>
		<shipments>
			<shipment id="shipment_37" from="27566523_r_9" to="17976690_2" size="23" startPickup="00:00:00" endPickup="596523:14:07" startDelivery="00:00:00" endDelivery="596523:14:07" pickupServiceTime="00:00:00" deliveryServiceTime="00:00:00"/>
			<shipment id="shipment_38" from="27566523_10" to="303392607_r_1" size="13" startPickup="00:00:00" endPickup="596523:14:07" startDelivery="00:00:00" endDelivery="596523:14:07" pickupServiceTime="00:00:00" deliveryServiceTime="00:00:00"/>
			<shipment id="shipment_39" from="333784188_1" to="32805008_3" size="23" startPickup="00:00:00" endPickup="596523:14:07" startDelivery="00:00:00" endDelivery="596523:14:07" pickupServiceTime="00:00:00" deliveryServiceTime="00:00:00"/>
			<shipment id="shipment_33" from="333784188_r_3" to="310650089_1" size="21" startPickup="00:00:00" endPickup="596523:14:07" startDelivery="00:00:00" endDelivery="596523:14:07" pickupServiceTime="00:00:00" deliveryServiceTime="00:00:00"/>
			<shipment id="shipment_34" from="27566523_r_10" to="784533362_r_15" size="23" startPickup="00:00:00" endPickup="596523:14:07" startDelivery="00:00:00" endDelivery="596523:14:07" pickupServiceTime="00:00:00" deliveryServiceTime="00:00:00"/>
			<shipment id="shipment_35" from="333784189_2" to="93203094_r_0" size="17" startPickup="00:00:00" endPickup="596523:14:07" startDelivery="00:00:00" endDelivery="596523:14:07" pickupServiceTime="00:00:00" deliveryServiceTime="00:00:00"/>
			<shipment id="shipment_36" from="333784189_1" to="234630683_0-234630683_1" size="21" startPickup="00:00:00" endPickup="596523:14:07" startDelivery="00:00:00" endDelivery="596523:14:07" pickupServiceTime="00:00:00" deliveryServiceTime="00:00:00"/>
			<shipment id="shipment_30" from="333784188_0" to="92145368_2" size="6" startPickup="00:00:00" endPickup="596523:14:07" startDelivery="00:00:00" endDelivery="596523:14:07" pickupServiceTime="00:00:00" deliveryServiceTime="00:00:00"/>
			<shipment id="shipment_31" from="333784188_1" to="139705263_8" size="7" startPickup="00:00:00" endPickup="596523:14:07" startDelivery="00:00:00" endDelivery="596523:14:07" pickupServiceTime="00:00:00" deliveryServiceTime="00:00:00"/>
			<shipment id="shipment_32" from="333784189_r_3" to="14506241_1" size="10" startPickup="00:00:00" endPickup="596523:14:07" startDelivery="00:00:00" endDelivery="596523:14:07" pickupServiceTime="00:00:00" deliveryServiceTime="00:00:00"/>
			<shipment id="shipment_48" from="27566523_11" to="125835607_r_1-125835607_r_2" size="6" startPickup="00:00:00" endPickup="596523:14:07" startDelivery="00:00:00" endDelivery="596523:14:07" pickupServiceTime="00:00:00" deliveryServiceTime="00:00:00"/>
			<shipment id="shipment_49" from="333784188_r_2" to="192559657_r_1" size="14" startPickup="00:00:00" endPickup="596523:14:07" startDelivery="00:00:00" endDelivery="596523:14:07" pickupServiceTime="00:00:00" deliveryServiceTime="00:00:00"/>
			<shipment id="shipment_44" from="333784188_0" to="112566019_r_3" size="18" startPickup="00:00:00" endPickup="596523:14:07" startDelivery="00:00:00" endDelivery="596523:14:07" pickupServiceTime="00:00:00" deliveryServiceTime="00:00:00"/>
			<shipment id="shipment_45" from="333784188_1" to="631979426_r_6" size="10" startPickup="00:00:00" endPickup="596523:14:07" startDelivery="00:00:00" endDelivery="596523:14:07" pickupServiceTime="00:00:00" deliveryServiceTime="00:00:00"/>
			<shipment id="shipment_46" from="333784189_r_2" to="104794393_r_1" size="9" startPickup="00:00:00" endPickup="596523:14:07" startDelivery="00:00:00" endDelivery="596523:14:07" pickupServiceTime="00:00:00" deliveryServiceTime="00:00:00"/>
			<shipment id="shipment_47" from="27566523_11" to="104794406_3" size="8" startPickup="00:00:00" endPickup="596523:14:07" startDelivery="00:00:00" endDelivery="596523:14:07" pickupServiceTime="00:00:00" deliveryServiceTime="00:00:00"/>
			<shipment id="shipment_40" from="27566523_r_9" to="722950836_3" size="17" startPickup="00:00:00" endPickup="596523:14:07" startDelivery="00:00:00" endDelivery="596523:14:07" pickupServiceTime="00:00:00" deliveryServiceTime="00:00:00"/>
			<shipment id="shipment_41" from="333784189_r_3" to="935329995_r_12" size="9" startPickup="00:00:00" endPickup="596523:14:07" startDelivery="00:00:00" endDelivery="596523:14:07" pickupServiceTime="00:00:00" deliveryServiceTime="00:00:00"/>
			<shipment id="shipment_42" from="333784188_1" to="814322476_r_1" size="24" startPickup="00:00:00" endPickup="596523:14:07" startDelivery="00:00:00" endDelivery="596523:14:07" pickupServiceTime="00:00:00" deliveryServiceTime="00:00:00"/>
			<shipment id="shipment_43" from="333784188_1" to="3450240_2" size="10" startPickup="00:00:00" endPickup="596523:14:07" startDelivery="00:00:00" endDelivery="596523:14:07" pickupServiceTime="00:00:00" deliveryServiceTime="00:00:00"/>
			<shipment id="shipment_19" from="27566523_r_10" to="92511622_r_3" size="25" startPickup="00:00:00" endPickup="596523:14:07" startDelivery="00:00:00" endDelivery="596523:14:07" pickupServiceTime="00:00:00" deliveryServiceTime="00:00:00"/>
			<shipment id="shipment_15" from="333784188_r_2" to="781845496_0" size="25" startPickup="00:00:00" endPickup="596523:14:07" startDelivery="00:00:00" endDelivery="596523:14:07" pickupServiceTime="00:00:00" deliveryServiceTime="00:00:00"/>
			<shipment id="shipment_16" from="333784188_1" to="296480717_r_4" size="25" startPickup="00:00:00" endPickup="596523:14:07" startDelivery="00:00:00" endDelivery="596523:14:07" pickupServiceTime="00:00:00" deliveryServiceTime="00:00:00"/>
			<shipment id="shipment_17" from="27566523_r_9" to="4014048_0-4014048_1" size="25" startPickup="00:00:00" endPickup="596523:14:07" startDelivery="00:00:00" endDelivery="596523:14:07" pickupServiceTime="00:00:00" deliveryServiceTime="00:00:00"/>
			<shipment id="shipment_18" from="333784188_r_2" to="133617176_0" size="25" startPickup="00:00:00" endPickup="596523:14:07" startDelivery="00:00:00" endDelivery="596523:14:07" pickupServiceTime="00:00:00" deliveryServiceTime="00:00:00"/>
			<shipment id="shipment_1" from="333784188_r_3" to="137831628_r_4" size="25" startPickup="00:00:00" endPickup="596523:14:07" startDelivery="00:00:00" endDelivery="596523:14:07" pickupServiceTime="00:00:00" deliveryServiceTime="00:00:00"/>
			<shipment id="shipment_11" from="333784188_r_3" to="71176156_r_14" size="25" startPickup="00:00:00" endPickup="596523:14:07" startDelivery="00:00:00" endDelivery="596523:14:07" pickupServiceTime="00:00:00" deliveryServiceTime="00:00:00"/>
			<shipment id="shipment_0" from="333784189_2" to="764125752_0" size="25" startPickup="00:00:00" endPickup="596523:14:07" startDelivery="00:00:00" endDelivery="596523:14:07" pickupServiceTime="00:00:00" deliveryServiceTime="00:00:00"/>
			<shipment id="shipment_12" from="333784189_r_2" to="86614478_8" size="25" startPickup="00:00:00" endPickup="596523:14:07" startDelivery="00:00:00" endDelivery="596523:14:07" pickupServiceTime="00:00:00" deliveryServiceTime="00:00:00"/>
			<shipment id="shipment_13" from="333784189_r_2" to="22906072_0" size="25" startPickup="00:00:00" endPickup="596523:14:07" startDelivery="00:00:00" endDelivery="596523:14:07" pickupServiceTime="00:00:00" deliveryServiceTime="00:00:00"/>
			<shipment id="shipment_14" from="333784189_r_3" to="38158912_12" size="25" startPickup="00:00:00" endPickup="596523:14:07" startDelivery="00:00:00" endDelivery="596523:14:07" pickupServiceTime="00:00:00" deliveryServiceTime="00:00:00"/>
			<shipment id="shipment_5" from="333784189_1" to="87240817_r_2" size="25" startPickup="00:00:00" endPickup="596523:14:07" startDelivery="00:00:00" endDelivery="596523:14:07" pickupServiceTime="00:00:00" deliveryServiceTime="00:00:00"/>
			<shipment id="shipment_4" from="333784188_r_3" to="844466432_r_0" size="25" startPickup="00:00:00" endPickup="596523:14:07" startDelivery="00:00:00" endDelivery="596523:14:07" pickupServiceTime="00:00:00" deliveryServiceTime="00:00:00"/>
			<shipment id="shipment_3" from="27566523_r_10" to="23035341_5" size="25" startPickup="00:00:00" endPickup="596523:14:07" startDelivery="00:00:00" endDelivery="596523:14:07" pickupServiceTime="00:00:00" deliveryServiceTime="00:00:00"/>
			<shipment id="shipment_2" from="27566523_11" to="96582766_1" size="25" startPickup="00:00:00" endPickup="596523:14:07" startDelivery="00:00:00" endDelivery="596523:14:07" pickupServiceTime="00:00:00" deliveryServiceTime="00:00:00"/>
			<shipment id="shipment_10" from="333784188_0" to="406156457_r_2" size="25" startPickup="00:00:00" endPickup="596523:14:07" startDelivery="00:00:00" endDelivery="596523:14:07" pickupServiceTime="00:00:00" deliveryServiceTime="00:00:00"/>
			<shipment id="shipment_9" from="27566523_r_10" to="23119518_r_3" size="25" startPickup="00:00:00" endPickup="596523:14:07" startDelivery="00:00:00" endDelivery="596523:14:07" pickupServiceTime="00:00:00" deliveryServiceTime="00:00:00"/>
			<shipment id="shipment_8" from="27566523_r_10" to="962526798_16" size="25" startPickup="00:00:00" endPickup="596523:14:07" startDelivery="00:00:00" endDelivery="596523:14:07" pickupServiceTime="00:00:00" deliveryServiceTime="00:00:00"/>
			<shipment id="shipment_7" from="333784188_r_3" to="286125264_2" size="25" startPickup="00:00:00" endPickup="596523:14:07" startDelivery="00:00:00" endDelivery="596523:14:07" pickupServiceTime="00:00:00" deliveryServiceTime="00:00:00"/>
			<shipment id="shipment_6" from="333784189_2" to="90712963_r_4" size="25" startPickup="00:00:00" endPickup="596523:14:07" startDelivery="00:00:00" endDelivery="596523:14:07" pickupServiceTime="00:00:00" deliveryServiceTime="00:00:00"/>
			<shipment id="shipment_26" from="333784188_r_3" to="876292404_r_0" size="25" startPickup="00:00:00" endPickup="596523:14:07" startDelivery="00:00:00" endDelivery="596523:14:07" pickupServiceTime="00:00:00" deliveryServiceTime="00:00:00"/>
			<shipment id="shipment_27" from="333784188_1" to="24336615_r_15" size="23" startPickup="00:00:00" endPickup="596523:14:07" startDelivery="00:00:00" endDelivery="596523:14:07" pickupServiceTime="00:00:00" deliveryServiceTime="00:00:00"/>
			<shipment id="shipment_28" from="333784189_1" to="23926665_4" size="7" startPickup="00:00:00" endPickup="596523:14:07" startDelivery="00:00:00" endDelivery="596523:14:07" pickupServiceTime="00:00:00" deliveryServiceTime="00:00:00"/>
			<shipment id="shipment_29" from="27566523_11" to="139898734_r_1" size="6" startPickup="00:00:00" endPickup="596523:14:07" startDelivery="00:00:00" endDelivery="596523:14:07" pickupServiceTime="00:00:00" deliveryServiceTime="00:00:00"/>
			<shipment id="shipment_22" from="333784188_r_3" to="1235806081_11" size="25" startPickup="00:00:00" endPickup="596523:14:07" startDelivery="00:00:00" endDelivery="596523:14:07" pickupServiceTime="00:00:00" deliveryServiceTime="00:00:00"/>
			<shipment id="shipment_23" from="333784189_r_2" to="11994544_5" size="25" startPickup="00:00:00" endPickup="596523:14:07" startDelivery="00:00:00" endDelivery="596523:14:07" pickupServiceTime="00:00:00" deliveryServiceTime="00:00:00"/>
			<shipment id="shipment_24" from="27566523_10" to="281829135_r_1" size="25" startPickup="00:00:00" endPickup="596523:14:07" startDelivery="00:00:00" endDelivery="596523:14:07" pickupServiceTime="00:00:00" deliveryServiceTime="00:00:00"/>
			<shipment id="shipment_25" from="333784188_1" to="25629738_r_0" size="25" startPickup="00:00:00" endPickup="596523:14:07" startDelivery="00:00:00" endDelivery="596523:14:07" pickupServiceTime="00:00:00" deliveryServiceTime="00:00:00"/>
			<shipment id="shipment_20" from="333784189_r_2" to="8130896_0" size="25" startPickup="00:00:00" endPickup="596523:14:07" startDelivery="00:00:00" endDelivery="596523:14:07" pickupServiceTime="00:00:00" deliveryServiceTime="00:00:00"/>
			<shipment id="shipment_21" from="333784188_r_3" to="608715598_r_1" size="25" startPickup="00:00:00" endPickup="596523:14:07" startDelivery="00:00:00" endDelivery="596523:14:07" pickupServiceTime="00:00:00" deliveryServiceTime="00:00:00"/>
		</shipments>
		<plans>
			<plan score="-2405.911424059447" selected="true">
				<attributes>
					<attribute name="jspritScore" class="java.lang.Double">-2281.878054803233</attribute>
				</attributes>
				<tour tourId="1" vehicleId="van_5">
					<act type="start" end_time="00:00:00"/>
					<leg expected_dep_time="00:00:00" expected_transp_time="00:00:00">
						<route></route>
					</leg>
					<act type="pickup" shipmentId="shipment_10"/>
					<leg expected_dep_time="00:00:00" expected_transp_time="00:00:08">
						<route></route>
					</leg>
					<act type="pickup" shipmentId="shipment_25"/>
					<leg expected_dep_time="00:00:08" expected_transp_time="00:00:00">
						<route></route>
					</leg>
					<act type="pickup" shipmentId="shipment_45"/>
					<leg expected_dep_time="00:00:08" expected_transp_time="00:00:00">
						<route></route>
					</leg>
					<act type="pickup" shipmentId="shipment_39"/>
					<leg expected_dep_time="00:00:08" expected_transp_time="00:00:00">
						<route></route>
					</leg>
					<act type="pickup" shipmentId="shipment_27"/>
					<leg expected_dep_time="00:00:08" expected_transp_time="00:00:00">
						<route></route>
					</leg>
					<act type="pickup" shipmentId="shipment_31"/>
					<leg expected_dep_time="00:00:08" expected_transp_time="00:00:00">
						<route></route>
					</leg>
					<act type="pickup" shipmentId="shipment_42"/>
					<leg expected_dep_time="00:00:08" expected_transp_time="00:00:00">
						<route></route>
					</leg>
					<act type="pickup" shipmentId="shipment_43"/>
					<leg expected_dep_time="00:00:08" expected_transp_time="00:00:00">
						<route></route>
					</leg>
					<act type="pickup" shipmentId="shipment_16"/>
					<leg expected_dep_time="00:00:08" expected_transp_time="00:00:08">
						<route></route>
					</leg>
					<act type="pickup" shipmentId="shipment_49"/>
					<leg expected_dep_time="00:00:17" expected_transp_time="00:00:00">
						<route></route>
					</leg>
					<act type="pickup" shipmentId="shipment_15"/>
					<leg expected_dep_time="00:00:17" expected_transp_time="00:00:00">
						<route></route>
					</leg>
					<act type="pickup" shipmentId="shipment_18"/>
					<leg expected_dep_time="00:00:17" expected_transp_time="00:00:02">
						<route></route>
					</leg>
					<act type="pickup" shipmentId="shipment_7"/>
					<leg expected_dep_time="00:00:19" expected_transp_time="00:00:00">
						<route></route>
					</leg>
					<act type="pickup" shipmentId="shipment_26"/>
					<leg expected_dep_time="00:00:19" expected_transp_time="00:00:00">
						<route></route>
					</leg>
					<act type="pickup" shipmentId="shipment_4"/>
					<leg expected_dep_time="00:00:19" expected_transp_time="00:00:00">
						<route></route>
					</leg>
					<act type="pickup" shipmentId="shipment_21"/>
					<leg expected_dep_time="00:00:19" expected_transp_time="00:00:00">
						<route></route>
					</leg>
					<act type="pickup" shipmentId="shipment_22"/>
					<leg expected_dep_time="00:00:19" expected_transp_time="00:00:00">
						<route></route>
					</leg>
					<act type="pickup" shipmentId="shipment_11"/>
					<leg expected_dep_time="00:00:19" expected_transp_time="00:00:00">
						<route></route>
					</leg>
					<act type="pickup" shipmentId="shipment_33"/>
					<leg expected_dep_time="00:00:19" expected_transp_time="00:00:02">
						<route></route>
					</leg>
					<act type="pickup" shipmentId="shipment_44"/>
					<leg expected_dep_time="00:00:21" expected_transp_time="00:00:00">
						<route></route>
					</leg>
					<act type="pickup" shipmentId="shipment_30"/>
					<leg expected_dep_time="00:00:21" expected_transp_time="00:00:01">
						<route></route>
					</leg>
					<act type="pickup" shipmentId="shipment_32"/>
					<leg expected_dep_time="00:00:23" expected_transp_time="00:00:00">
						<route></route>
					</leg>
					<act type="pickup" shipmentId="shipment_14"/>
					<leg expected_dep_time="00:00:23" expected_transp_time="00:00:00">
						<route></route>
					</leg>
					<act type="pickup" shipmentId="shipment_41"/>
					<leg expected_dep_time="00:00:23" expected_transp_time="00:00:01">
						<route></route>
					</leg>
					<act type="pickup" shipmentId="shipment_5"/>
					<leg expected_dep_time="00:00:24" expected_transp_time="00:00:00">
						<route></route>
					</leg>
					<act type="pickup" shipmentId="shipment_28"/>
					<leg expected_dep_time="00:00:24" expected_transp_time="00:00:00">
						<route></route>
					</leg>
					<act type="pickup" shipmentId="shipment_36"/>
					<leg expected_dep_time="00:00:24" expected_transp_time="00:00:02">
						<route></route>
					</leg>
					<act type="pickup" shipmentId="shipment_6"/>
					<leg expected_dep_time="00:00:27" expected_transp_time="00:00:00">
						<route></route>
					</leg>
					<act type="pickup" shipmentId="shipment_35"/>
					<leg expected_dep_time="00:00:27" expected_transp_time="00:00:00">
						<route></route>
					</leg>
					<act type="pickup" shipmentId="shipment_0"/>
					<leg expected_dep_time="00:00:27" expected_transp_time="00:00:02">
						<route></route>
					</leg>
					<act type="pickup" shipmentId="shipment_12"/>
					<leg expected_dep_time="00:00:29" expected_transp_time="00:00:00">
						<route></route>
					</leg>
					<act type="pickup" shipmentId="shipment_20"/>
					<leg expected_dep_time="00:00:29" expected_transp_time="00:00:00">
						<route></route>
					</leg>
					<act type="pickup" shipmentId="shipment_46"/>
					<leg expected_dep_time="00:00:29" expected_transp_time="00:00:00">
						<route></route>
					</leg>
					<act type="pickup" shipmentId="shipment_13"/>
					<leg expected_dep_time="00:00:29" expected_transp_time="00:00:00">
						<route></route>
					</leg>
					<act type="pickup" shipmentId="shipment_23"/>
					<leg expected_dep_time="00:00:29" expected_transp_time="00:00:02">
						<route></route>
					</leg>
					<act type="pickup" shipmentId="shipment_1"/>
					<leg expected_dep_time="00:00:32" expected_transp_time="00:01:49">
						<route>326736776_r_5 326736776_r_6 326736776_r_7 326736776_r_8 326736776_r_9 326736797_0-326736797_1 326736797_2 326736797_3 326736797_4 807751753_0-807751753_1 807751754_0 807751754_1 807751754_2 807751754_3 182723456_0 182723456_1-182723456_2 182723456_3 807751738_r_1 807751738_r_2 807751738_r_3 182723461_7-182723461_8 182723461_9 182723461_10 182723461_11-182723461_12 182723461_13 182723458_0 810580966_r_0-810580966_r_1 325260116_3 184346173_0 184346173_1 184346173_2 810580965_0-810580965_1-810580965_2 184344076_0 184344076_1 184344076_2 184344076_3 184344076_4 184344076_5 184344076_6 184344076_7 326736773_r_3 326736773_r_4 1084192716_0 1084192716_1 1084192716_2 32805008_0 32805008_1 32805008_2</route>
					</leg>
					<act type="delivery" shipmentId="shipment_39"/>
					<leg expected_dep_time="00:02:21" expected_transp_time="00:03:36">
						<route>160134509_0-160134509_1 160134509_2 160134509_3 160134509_4 160134509_5 160134509_6-160134509_7 160134509_8 160134509_9 160134509_10 1084192715_0 1084192715_1 326736773_r_4 345596705_r_0 345596705_r_1 225605573_r_0 608715549_r_0 345596706_r_0 345596706_r_1 225605572_r_0 225605572_r_1 225605572_r_2 8128795_0 8128795_1 8128795_2 192559654_0 192559654_1 192559654_2 192559654_3-192559654_4 192559654_5-192559654_6-192559654_7 192559654_8-192559654_9-192559654_10 1001151697_0 225605633_0 225605633_1 225605633_2 225605633_3 225605633_4 225605633_5 225605633_6 225605633_7 225605633_8 225605633_9 225605633_10 78568454_0 78568454_1 78568454_2 78568454_3 8131119_0 8131119_1 8131119_2 8131119_3 947161958_0 681081955_0 681081955_1 681081955_2 681081955_3 28982660_0 28982660_1 813979473_0 192559626_0 192559626_1 192559626_2 192559626_3-192559626_4 192559626_5 813979469_0 813979469_1 813979469_2 192559627_0 192559627_1-192559627_2 192559627_3 192559627_4-192559627_5 192559627_6 3677945_0 3677945_1 3677945_2 521193383_0 521193382_0 813979466_0 813979466_1 80194318_0 80194318_1 80194318_2 80194318_3 80194318_4 80194318_5 80194318_6 814322832_0 229044194_1-229044194_2-229044194_3 3677944_2 608715521_0 608715520_0 174338458_0 174338458_1 174338458_2 174338458_3 174338458_4 174338458_5 174338458_6-174338458_7 814322474_r_0 814322474_r_1-814322475_r_0 814322477_r_0 814322476_r_0</route>
					</leg>
					<act type="delivery" shipmentId="shipment_42"/>
					<leg expected_dep_time="00:05:57" expected_transp_time="00:03:26">
						<route>814322476_0 814322476_1 814322477_0 814322475_0-814322474_0 814322474_1 174338458_8 174338458_9 97175693_0 97175693_1 3999689_0 813983393_0 813983392_0 455505771_0 455505771_1 813983390_0 813983389_0 813983388_0 813983391_0 813983391_1 813983387_0 813983386_0 439142855_0 439142855_1 439142855_2 17336304_0 17336304_1 17336304_2 17336304_3 461159369_7 461159369_8 8127971_0 8127971_1 8127971_2 8127971_3 8127971_4 8127971_5 8127971_6 8127971_7-8127971_8 8127971_9 8127971_10 695832819_r_0 3450250_r_0-125472517_r_0-125472517_r_1 125472517_r_2 125472517_r_3 125472517_r_4 125472517_r_5 125472517_r_6 125472517_r_7 125472517_r_8 125472517_r_9 3390203_r_0 8302412_0 3390204_0-3390204_1 3390204_2 3390204_3 3390204_4 3390204_5 24471494_0 24471494_1 24471494_2 24471494_3 24471494_4 24471494_5 24471494_6 24471494_7 24471494_8 24471494_9 24471494_10 24471494_11 24471494_12 3752565_0-3752565_1 3752565_2 3752565_3</route>
					</leg>
					<act type="delivery" shipmentId="shipment_21"/>
					<leg expected_dep_time="00:09:23" expected_transp_time="00:03:18">
						<route>608715598_7 608715598_8 608715597_0-95890227_0 95890227_1 95890227_2 95890227_3 95890227_4 95890227_5 95890227_6 13066183_0 88634858_0-88634858_1-88634858_2-3990532_0 3990532_1 567873927_0 567873927_1 567873927_2 567873927_3 567873927_4 567873927_5 567873927_6 567873927_7 567873924_0 567873922_0 567873922_1 567873918_0 567873918_1 3991611_0 3991611_1 3991611_2-3991611_3 23435867_0 23435867_1 23435867_2 23435867_3 23435867_4 23435867_5 23435867_6 3991610_0 3991610_1-3991610_2 3991610_3-3991610_4 446474263_5 446474263_6 446474263_7 446474263_8 16767290_r_0-16767290_r_1 16767290_r_2 16767290_r_3-16767290_r_4 16767290_r_5 3343975_0-3343975_1 3343975_2 3343975_3 3343975_4 3343975_5 3343975_6 3343975_7 3343975_8 3343975_9-3343975_10 3343975_11 3343975_12 8130897_0-8130897_1-8130897_2 8130897_3 8130893_r_1 3991680_r_2</route>
					</leg>
					<act type="delivery" shipmentId="shipment_20"/>
					<leg expected_dep_time="00:12:42" expected_transp_time="00:05:05">
						<route>8130895_r_1 3991681_r_0 8130893_r_0 8130897_r_0 8130897_r_1-8130897_r_2-8130897_r_3 3343975_13 3343975_14 3343975_15 3343975_16 3343975_17 3343975_18 3343975_19 19793199_r_0 1003492531_0 185988814_0 185988814_1 19793223_r_0 19793223_r_1 81522744_r_0 81522744_r_1 1115244401_r_0 89574079_0 84696751_0 79193581_0 79193580_0 258936980_0 949439843_0 79193579_0 78568409_0 80371128_0 23000060_0 23000060_1 14970554_0-323245644_0 323245648_0 323245648_1 323245648_2 323245642_0-323245647_0 323245647_1 198559166_r_1 584356745_r_0 584356749_r_0 663770966_r_0 663770966_r_1 61556877_r_0 61556877_r_1 61556877_r_2 61556877_r_3-61556877_r_4 12715116_0 12715116_1-12715116_2 12715116_3 12715116_4 12715116_5 23707244_0 23707244_1 23707244_2 23707244_3 23707243_0 23707243_1 23707243_2 23707243_3 940912606_0-940912606_1-940912606_2 940912606_3-940912606_4-940912606_5 940912606_6 940912606_7 940912606_8 61596289_0 61596289_1 61596289_2 608715553_0 608715553_1 608715553_2 608715553_3 608715553_4 608715553_5 15081933_0 15081933_1 286591669_0 286591669_1 27566528_2 27566528_3 27566528_4-27566528_5 27566528_6 1012971579_0 1012971579_1-1012971579_2 1012971579_3 286591662_0 286591662_1 1012971580_0 27566523_r_7 27566523_r_8</route>
					</leg>
					<act type="pickup" shipmentId="shipment_37"/>
					<leg expected_dep_time="00:17:48" expected_transp_time="00:00:00">
						<route></route>
					</leg>
					<act type="pickup" shipmentId="shipment_40"/>
					<leg expected_dep_time="00:17:48" expected_transp_time="00:00:00">
						<route></route>
					</leg>
					<act type="pickup" shipmentId="shipment_17"/>
					<leg expected_dep_time="00:17:48" expected_transp_time="00:00:03">
						<route></route>
					</leg>
					<act type="pickup" shipmentId="shipment_19"/>
					<leg expected_dep_time="00:17:51" expected_transp_time="00:00:00">
						<route></route>
					</leg>
					<act type="pickup" shipmentId="shipment_9"/>
					<leg expected_dep_time="00:17:51" expected_transp_time="00:00:00">
						<route></route>
					</leg>
					<act type="pickup" shipmentId="shipment_34"/>
					<leg expected_dep_time="00:17:51" expected_transp_time="00:00:00">
						<route></route>
					</leg>
					<act type="pickup" shipmentId="shipment_3"/>
					<leg expected_dep_time="00:17:51" expected_transp_time="00:00:00">
						<route></route>
					</leg>
					<act type="pickup" shipmentId="shipment_8"/>
					<leg expected_dep_time="00:17:51" expected_transp_time="00:00:03">
						<route></route>
					</leg>
					<act type="pickup" shipmentId="shipment_38"/>
					<leg expected_dep_time="00:17:55" expected_transp_time="00:00:00">
						<route></route>
					</leg>
					<act type="pickup" shipmentId="shipment_24"/>
					<leg expected_dep_time="00:17:55" expected_transp_time="00:00:01">
						<route></route>
					</leg>
					<act type="pickup" shipmentId="shipment_29"/>
					<leg expected_dep_time="00:17:56" expected_transp_time="00:00:00">
						<route></route>
					</leg>
					<act type="pickup" shipmentId="shipment_48"/>
					<leg expected_dep_time="00:17:56" expected_transp_time="00:00:00">
						<route></route>
					</leg>
					<act type="pickup" shipmentId="shipment_2"/>
					<leg expected_dep_time="00:17:56" expected_transp_time="00:00:00">
						<route></route>
					</leg>
					<act type="pickup" shipmentId="shipment_47"/>
					<leg expected_dep_time="00:17:56" expected_transp_time="00:01:09">
						<route>27566523_12 27566523_13 27566523_14 27566523_15 27566523_16 27566523_17 27566523_18-27566523_19 27566523_20 521257409_r_6 521257409_r_7 521257409_r_8 521257409_r_9 521257409_r_10 521257409_r_11 126304955_0 126304955_1-126304955_2 126304955_3 126304955_4 116692564_0 116692564_1 406156457_r_0 406156457_r_1</route>
					</leg>
					<act type="delivery" shipmentId="shipment_10"/>
					<leg expected_dep_time="00:19:05" expected_transp_time="00:10:27">